Input file: .vscode/temp_6_ant.json
Output file: .vscode/output_6_ant.json
point-set_100_0245ce31
100

POINTS_X
8050 ,7650 ,400 ,0 ,600 ,7850 ,200 ,400 ,7850 ,7650 ,600 ,8050 ,8050 ,8250 ,8250 ,7850 ,7850 ,8250 ,400 ,600 ,8250 ,8250 ,8250 ,200 ,600 ,8050 ,7850 ,600 ,7850 ,7850 ,8250 ,8250 ,0 ,200 ,7850 ,7650 ,8050 ,8250 ,600 ,7650 ,0 ,7850 ,600 ,400 ,600 ,0 ,8250 ,200 ,8050 ,7850 ,8050 ,0 ,7650 ,7850 ,8250 ,0 ,400 ,400 ,200 ,7850 ,7850 ,200 ,600 ,200 ,7650 ,200 ,7650 ,8050 ,7850 ,7650 ,200 ,400 ,200 ,200 ,7850 ,0 ,200 ,8250 ,200 ,600 ,200 ,600 ,8250 ,600 ,8250 ,400 ,8250 ,600 ,600 ,600 ,200 ,600 ,8250 ,8050 ,200 ,200 ,200 ,0 ,8250 ,7850 ,
POINTS_Y
4200 ,1700 ,6800 ,4200 ,2500 ,6000 ,950 ,900 ,3100 ,3300 ,200 ,3300 ,900 ,4000 ,900 ,2500 ,6600 ,1500 ,5950 ,5950 ,2500 ,1700 ,200 ,6000 ,4200 ,5950 ,3300 ,0 ,950 ,4000 ,5950 ,5100 ,5100 ,2500 ,1700 ,6000 ,5100 ,0 ,2300 ,950 ,2500 ,6800 ,4000 ,2500 ,6800 ,200 ,3300 ,3100 ,2500 ,5100 ,6800 ,1700 ,6800 ,200 ,4900 ,950 ,1700 ,5100 ,4000 ,0 ,4900 ,2300 ,1700 ,4200 ,4200 ,0 ,5100 ,200 ,4200 ,2500 ,5100 ,4200 ,4900 ,750 ,5800 ,6000 ,200 ,6600 ,1500 ,3300 ,5800 ,4900 ,4200 ,1500 ,5750 ,3300 ,2300 ,700 ,6600 ,900 ,6800 ,3100 ,3100 ,1700 ,3300 ,6600 ,1700 ,3300 ,700 ,750 ,
REGION_BOUND
45 ,65 ,37 ,77 ,50 ,90 ,75 ,
NUM CONSTRAINTS
0

ADDITIONAL CONSTRAINTS

METHOD: ant

PARAMETERS:
L: 200, alpha: 3, beta: 0.8, kappa: 8, lambda: 0.5, psi: 3, xi: 1, 
DELAUNAY: true
Α. ΚΥΡΤΟ ΠΕΡΙΒΛΗΜΑ ΧΩΡΙΣ ΠΕΡΙΟΡΙΣΜΟΥΣ
pn:0 obtuses:31 steiners:3
pn:0 obtuses:31 steiners:4
pn:0 obtuses:31 steiners:5
pn:0 obtuses:31 steiners:6
pn:0 obtuses:31 steiners:7
pn:0 obtuses:31 steiners:8
pn:0 obtuses:31 steiners:9
pn:0 obtuses:31 steiners:10
pn:0 obtuses:31 steiners:11
pn:0 obtuses:31 steiners:12
pn:0 obtuses:31 steiners:13
pn:0 obtuses:31 steiners:14
pn:0 obtuses:31 steiners:15
pn:0 obtuses:31 steiners:16
pn:0 obtuses:31 steiners:17
pn:0 obtuses:31 steiners:18
pn:1.15634 obtuses:33 steiners:19
pn:0 obtuses:33 steiners:20
pn:0 obtuses:33 steiners:21
pn:0 obtuses:33 steiners:22
pn:1.95743 obtuses:36 steiners:23
pn:0 obtuses:36 steiners:24
pn:0 obtuses:36 steiners:25
pn:0 obtuses:36 steiners:26
pn:0 obtuses:36 steiners:27
pn:0 obtuses:36 steiners:28
pn:0 obtuses:36 steiners:29
pn:0 obtuses:36 steiners:30
pn:0 obtuses:36 steiners:31
pn:0 obtuses:36 steiners:32
pn:0 obtuses:36 steiners:33
pn:0 obtuses:36 steiners:34
pn:0 obtuses:36 steiners:35
pn:0 obtuses:36 steiners:36
pn:1.97333 obtuses:38 steiners:37
pn:0 obtuses:38 steiners:38
pn:0 obtuses:38 steiners:39
pn:0 obtuses:38 steiners:40
pn:0 obtuses:38 steiners:41
pn:0 obtuses:38 steiners:42
pn:0 obtuses:38 steiners:43
pn:0 obtuses:38 steiners:44
pn:0 obtuses:38 steiners:45
pn:0 obtuses:38 steiners:46
pn:0 obtuses:38 steiners:47
pn:0 obtuses:38 steiners:48
pn:1.25977 obtuses:39 steiners:49
pn:0 obtuses:39 steiners:50
pn:0 obtuses:39 steiners:51
pn:0 obtuses:39 steiners:52
pn:0 obtuses:39 steiners:53
pn:0 obtuses:39 steiners:54
pn:0 obtuses:39 steiners:55
pn:2.7755 obtuses:41 steiners:56
pn:0 obtuses:41 steiners:57
pn:0 obtuses:41 steiners:58
pn:0 obtuses:41 steiners:59
pn:-1.46918 obtuses:40 steiners:60
pn:1.49387 obtuses:41 steiners:61
pn:0 obtuses:41 steiners:62
pn:0 obtuses:41 steiners:63
pn:0 obtuses:41 steiners:64
pn:0 obtuses:41 steiners:65
pn:0 obtuses:41 steiners:66
pn:3.16721 obtuses:43 steiners:67
pn:3.06865 obtuses:45 steiners:68
pn:0 obtuses:45 steiners:69
pn:0 obtuses:45 steiners:70
pn:0 obtuses:45 steiners:71
pn:4.61443 obtuses:48 steiners:72
pn:0 obtuses:48 steiners:73
pn:3.00037 obtuses:50 steiners:74
pn:0 obtuses:50 steiners:75
pn:0 obtuses:50 steiners:76
pn:3.00034 obtuses:52 steiners:77
pn:4.34687 obtuses:55 steiners:78
pn:0 obtuses:55 steiners:79
pn:0 obtuses:55 steiners:80
pn:0 obtuses:55 steiners:81
pn:0 obtuses:55 steiners:82
pn:0 obtuses:55 steiners:83
pn:0 obtuses:55 steiners:84
pn:4.48773 obtuses:58 steiners:85
pn:0 obtuses:58 steiners:86
pn:0 obtuses:58 steiners:87
pn:0 obtuses:58 steiners:88
pn:0 obtuses:58 steiners:89
pn:0 obtuses:58 steiners:90
pn:0 obtuses:58 steiners:91
pn:0 obtuses:58 steiners:92
pn:0 obtuses:58 steiners:93
pn:0 obtuses:58 steiners:94
pn:0 obtuses:58 steiners:95
pn:0 obtuses:58 steiners:96
pn:0 obtuses:58 steiners:97
pn:0 obtuses:58 steiners:98
pn:0 obtuses:58 steiners:99
pn:0 obtuses:58 steiners:100
pn:0 obtuses:58 steiners:101
pn:0 obtuses:58 steiners:102
pn:0 obtuses:58 steiners:103
pn:0 obtuses:58 steiners:104
pn:-1.81742 obtuses:57 steiners:105
pn:0 obtuses:57 steiners:106
pn:0 obtuses:57 steiners:107
pn:3.70724 obtuses:59 steiners:108
pn:0 obtuses:59 steiners:109
pn:0 obtuses:59 steiners:110
pn:0 obtuses:59 steiners:111
pn:0 obtuses:59 steiners:112
pn:0 obtuses:59 steiners:113
pn:3.78366 obtuses:61 steiners:114
pn:0 obtuses:61 steiners:115
pn:0 obtuses:61 steiners:116
pn:0 obtuses:61 steiners:117
pn:0 obtuses:61 steiners:118
pn:0 obtuses:61 steiners:119
pn:1.94312 obtuses:62 steiners:120
pn:0 obtuses:62 steiners:121
pn:0 obtuses:62 steiners:122
pn:0 obtuses:62 steiners:123
pn:0 obtuses:62 steiners:124
pn:0 obtuses:62 steiners:125
pn:-2.04068 obtuses:61 steiners:126
pn:0 obtuses:61 steiners:127
pn:0 obtuses:61 steiners:128
pn:0 obtuses:61 steiners:129
pn:0 obtuses:61 steiners:130
pn:0 obtuses:61 steiners:131
pn:0 obtuses:61 steiners:132
pn:0 obtuses:61 steiners:133
pn:4.3068 obtuses:63 steiners:134
pn:0 obtuses:63 steiners:135
pn:0 obtuses:63 steiners:136
pn:0 obtuses:63 steiners:137
pn:0 obtuses:63 steiners:138
pn:0 obtuses:63 steiners:139
pn:0 obtuses:63 steiners:140
pn:0 obtuses:63 steiners:141
pn:0 obtuses:63 steiners:142
pn:0 obtuses:63 steiners:143
pn:0 obtuses:63 steiners:144
pn:0 obtuses:63 steiners:145
pn:4.54723 obtuses:65 steiners:146
pn:-2.27135 obtuses:64 steiners:147
pn:25.3478 obtuses:76 steiners:148
pn:0 obtuses:76 steiners:149
pn:0 obtuses:76 steiners:150
pn:0 obtuses:76 steiners:151
pn:-2.00664 obtuses:75 steiners:152
pn:0 obtuses:75 steiners:153
pn:0 obtuses:75 steiners:154
pn:0 obtuses:75 steiners:155
pn:-2.08727 obtuses:74 steiners:156
pn:0 obtuses:74 steiners:157
pn:4.20023 obtuses:76 steiners:158
pn:0 obtuses:76 steiners:159
pn:0 obtuses:76 steiners:160
pn:0 obtuses:76 steiners:161
pn:-2.1391 obtuses:75 steiners:162
pn:0 obtuses:75 steiners:163
pn:0 obtuses:75 steiners:164
pn:0 obtuses:75 steiners:165
pn:-2.2215 obtuses:74 steiners:166
pn:0 obtuses:74 steiners:167
pn:0 obtuses:74 steiners:168
pn:0 obtuses:74 steiners:169
pn:0 obtuses:74 steiners:170
pn:4.54692 obtuses:76 steiners:171
pn:0 obtuses:76 steiners:172
pn:0 obtuses:76 steiners:173
pn:0 obtuses:76 steiners:174
pn:0 obtuses:76 steiners:175
pn:0 obtuses:76 steiners:176
pn:0 obtuses:76 steiners:177
pn:0 obtuses:76 steiners:178
pn:0 obtuses:76 steiners:179
pn:4.66259 obtuses:78 steiners:180
pn:0 obtuses:78 steiners:181
pn:0 obtuses:78 steiners:182
pn:0 obtuses:78 steiners:183
pn:0 obtuses:78 steiners:184
pn:0 obtuses:78 steiners:185
pn:0 obtuses:78 steiners:186
pn:0 obtuses:78 steiners:187
pn:0 obtuses:78 steiners:188
pn:0 obtuses:78 steiners:189
pn:0 obtuses:78 steiners:190
pn:0 obtuses:78 steiners:191
pn:-2.471 obtuses:77 steiners:192
pn:0 obtuses:77 steiners:193
pn:7.39579 obtuses:80 steiners:194
pn:-2.44657 obtuses:79 steiners:195
pn:4.88774 obtuses:81 steiners:196
pn:0 obtuses:81 steiners:197
pn:0 obtuses:81 steiners:198
Ενέργεια τριγωνοποίσης που δεν συγκλίνει: 401.4
Method: Ant Colony: 
	Original CDT had: 32/164 obtuse faces
	We inserted 198 steiner points:
		Middle of largest edge: 0
		Circumcenter: 23
		Projection: 175
		Polygon Cnetroid: 0
Final obtuse faces: 81/566
Αρχικές αμβλείες: 32
Τελικές αμβλείες: 81

Αρχικά faces: 164
Τελικές faces: 566

Αρχική ενέργεια: 96
Τελική ενέργεια: 401.4

-153.125% αύξηση αμβλείων
