Input file: .vscode/temp_3_ant.json
Output file: .vscode/output_3_ant.json
point-set_40_1b92b629
40

POINTS_X
77 ,78 ,-5 ,51 ,7 ,-22 ,-47 ,40 ,19 ,69 ,-28 ,52 ,35 ,23 ,54 ,-42 ,-97 ,5 ,-35 ,85 ,60 ,-83 ,41 ,0 ,-50 ,64 ,99 ,-54 ,-66 ,-12 ,57 ,-64 ,-88 ,-67 ,59 ,85 ,91 ,-43 ,33 ,-19 ,
POINTS_Y
79 ,-87 ,-39 ,-77 ,-4 ,73 ,12 ,80 ,93 ,59 ,73 ,66 ,-1 ,52 ,-82 ,63 ,35 ,-41 ,-54 ,36 ,58 ,84 ,42 ,75 ,60 ,20 ,81 ,-50 ,63 ,42 ,95 ,70 ,36 ,72 ,-49 ,11 ,36 ,47 ,57 ,59 ,
REGION_BOUND
16 ,27 ,14 ,1 ,26 ,30 ,8 ,21 ,
NUM CONSTRAINTS
0

ADDITIONAL CONSTRAINTS

METHOD: ant

PARAMETERS:
L: 200, alpha: 3, beta: 0.8, kappa: 8, lambda: 0.5, psi: 3, xi: 1, 
DELAUNAY: true
Α. ΚΥΡΤΟ ΠΕΡΙΒΛΗΜΑ ΧΩΡΙΣ ΠΕΡΙΟΡΙΣΜΟΥΣ
pn:0 obtuses:38 steiners:3
pn:0 obtuses:38 steiners:4
pn:-0.119512 obtuses:37 steiners:5
pn:0 obtuses:37 steiners:6
pn:0 obtuses:37 steiners:7
pn:-0.205188 obtuses:36 steiners:8
pn:0 obtuses:36 steiners:9
pn:0 obtuses:36 steiners:10
pn:0 obtuses:36 steiners:11
pn:-0.323761 obtuses:35 steiners:12
pn:-0.362151 obtuses:34 steiners:13
pn:0 obtuses:34 steiners:14
pn:0 obtuses:34 steiners:15
pn:0 obtuses:34 steiners:16
pn:0 obtuses:34 steiners:17
pn:0 obtuses:34 steiners:18
pn:0 obtuses:34 steiners:19
pn:0 obtuses:34 steiners:20
pn:0 obtuses:34 steiners:21
pn:0 obtuses:34 steiners:22
pn:0 obtuses:34 steiners:23
pn:-0.701439 obtuses:33 steiners:24
pn:0 obtuses:33 steiners:25
pn:0 obtuses:33 steiners:26
pn:0 obtuses:33 steiners:27
pn:0 obtuses:33 steiners:28
pn:0 obtuses:33 steiners:29
pn:-0.907677 obtuses:32 steiners:30
pn:0 obtuses:32 steiners:31
pn:0 obtuses:32 steiners:32
pn:0 obtuses:32 steiners:33
pn:0 obtuses:32 steiners:34
pn:0 obtuses:32 steiners:35
pn:0 obtuses:32 steiners:36
pn:0 obtuses:32 steiners:37
pn:0 obtuses:32 steiners:38
pn:0 obtuses:32 steiners:39
pn:0 obtuses:32 steiners:40
pn:0 obtuses:32 steiners:41
pn:0 obtuses:32 steiners:42
pn:0 obtuses:32 steiners:43
pn:0 obtuses:32 steiners:44
pn:0 obtuses:32 steiners:45
pn:0 obtuses:32 steiners:46
pn:-1.47626 obtuses:31 steiners:47
pn:-1.55746 obtuses:30 steiners:48
pn:0 obtuses:30 steiners:49
pn:0 obtuses:30 steiners:50
pn:0 obtuses:30 steiners:51
pn:-1.74588 obtuses:29 steiners:52
pn:0 obtuses:29 steiners:53
pn:0 obtuses:29 steiners:54
pn:0 obtuses:29 steiners:55
pn:0 obtuses:29 steiners:56
pn:0 obtuses:29 steiners:57
pn:0 obtuses:29 steiners:58
pn:0 obtuses:29 steiners:59
pn:0 obtuses:29 steiners:60
pn:0 obtuses:29 steiners:61
pn:0 obtuses:29 steiners:62
pn:0 obtuses:29 steiners:63
pn:0 obtuses:29 steiners:64
pn:-2.26334 obtuses:28 steiners:65
pn:0 obtuses:28 steiners:66
pn:0 obtuses:28 steiners:67
pn:0 obtuses:28 steiners:68
pn:-2.49114 obtuses:27 steiners:69
pn:-2.62291 obtuses:26 steiners:70
pn:0 obtuses:26 steiners:71
pn:0 obtuses:26 steiners:72
pn:0 obtuses:26 steiners:73
pn:0 obtuses:26 steiners:74
pn:0 obtuses:26 steiners:75
pn:0 obtuses:26 steiners:76
pn:0 obtuses:26 steiners:77
pn:0 obtuses:26 steiners:78
pn:0 obtuses:26 steiners:79
pn:0 obtuses:26 steiners:80
pn:0 obtuses:26 steiners:81
pn:0 obtuses:26 steiners:82
pn:0 obtuses:26 steiners:83
pn:-3.27489 obtuses:25 steiners:84
pn:0 obtuses:25 steiners:85
pn:0 obtuses:25 steiners:86
pn:0 obtuses:25 steiners:87
pn:0 obtuses:25 steiners:88
pn:0 obtuses:25 steiners:89
pn:0 obtuses:25 steiners:90
pn:-3.69435 obtuses:24 steiners:91
pn:0 obtuses:24 steiners:92
pn:0 obtuses:24 steiners:93
pn:0 obtuses:24 steiners:94
pn:0 obtuses:24 steiners:95
pn:0 obtuses:24 steiners:96
pn:0 obtuses:24 steiners:97
pn:0 obtuses:24 steiners:98
pn:0 obtuses:24 steiners:99
pn:0 obtuses:24 steiners:100
pn:0 obtuses:24 steiners:101
pn:0 obtuses:24 steiners:102
pn:0 obtuses:24 steiners:103
pn:-4.40489 obtuses:23 steiners:104
pn:0 obtuses:23 steiners:105
pn:0 obtuses:23 steiners:106
pn:0 obtuses:23 steiners:107
pn:0 obtuses:23 steiners:108
pn:0 obtuses:23 steiners:109
pn:0 obtuses:23 steiners:110
pn:0 obtuses:23 steiners:111
pn:0 obtuses:23 steiners:112
pn:0 obtuses:23 steiners:113
pn:0 obtuses:23 steiners:114
pn:0 obtuses:23 steiners:115
pn:0 obtuses:23 steiners:116
pn:0 obtuses:23 steiners:117
pn:0 obtuses:23 steiners:118
pn:0 obtuses:23 steiners:119
pn:0 obtuses:23 steiners:120
pn:0 obtuses:23 steiners:121
pn:0 obtuses:23 steiners:122
pn:0 obtuses:23 steiners:123
pn:0 obtuses:23 steiners:124
pn:0 obtuses:23 steiners:125
pn:0 obtuses:23 steiners:126
pn:0 obtuses:23 steiners:127
pn:0 obtuses:23 steiners:128
pn:0 obtuses:23 steiners:129
pn:0 obtuses:23 steiners:130
pn:0 obtuses:23 steiners:131
pn:0 obtuses:23 steiners:132
pn:0 obtuses:23 steiners:133
pn:0 obtuses:23 steiners:134
pn:0 obtuses:23 steiners:135
pn:0 obtuses:23 steiners:136
pn:-6.06764 obtuses:22 steiners:137
pn:0 obtuses:22 steiners:138
pn:0 obtuses:22 steiners:139
pn:0 obtuses:22 steiners:140
pn:-6.53603 obtuses:21 steiners:141
pn:0 obtuses:21 steiners:142
pn:0 obtuses:21 steiners:143
pn:0 obtuses:21 steiners:144
pn:0 obtuses:21 steiners:145
pn:0 obtuses:21 steiners:146
pn:0 obtuses:21 steiners:147
pn:0 obtuses:21 steiners:148
pn:0 obtuses:21 steiners:149
pn:0 obtuses:21 steiners:150
pn:0 obtuses:21 steiners:151
pn:0 obtuses:21 steiners:152
pn:0 obtuses:21 steiners:153
pn:0 obtuses:21 steiners:154
pn:-7.53805 obtuses:20 steiners:155
pn:0 obtuses:20 steiners:156
pn:0 obtuses:20 steiners:157
pn:-8.07867 obtuses:19 steiners:158
pn:0 obtuses:19 steiners:159
pn:0 obtuses:19 steiners:160
pn:0 obtuses:19 steiners:161
pn:0 obtuses:19 steiners:162
pn:0 obtuses:19 steiners:163
pn:0 obtuses:19 steiners:164
pn:0 obtuses:19 steiners:165
pn:0 obtuses:19 steiners:166
pn:0 obtuses:19 steiners:167
pn:0 obtuses:19 steiners:168
pn:0 obtuses:19 steiners:169
pn:0 obtuses:19 steiners:170
pn:0 obtuses:19 steiners:171
pn:0 obtuses:19 steiners:172
pn:0 obtuses:19 steiners:173
pn:0 obtuses:19 steiners:174
pn:0 obtuses:19 steiners:175
pn:0 obtuses:19 steiners:176
pn:0 obtuses:19 steiners:177
pn:0 obtuses:19 steiners:178
pn:0 obtuses:19 steiners:179
pn:0 obtuses:19 steiners:180
pn:0 obtuses:19 steiners:181
pn:18.1651 obtuses:21 steiners:182
pn:0 obtuses:21 steiners:183
pn:0 obtuses:21 steiners:184
pn:0 obtuses:21 steiners:185
pn:0 obtuses:21 steiners:186
pn:0 obtuses:21 steiners:187
pn:0 obtuses:21 steiners:188
pn:0 obtuses:21 steiners:189
pn:0 obtuses:21 steiners:190
pn:0 obtuses:21 steiners:191
pn:0 obtuses:21 steiners:192
pn:0 obtuses:21 steiners:193
pn:0 obtuses:21 steiners:194
pn:0 obtuses:21 steiners:195
pn:0 obtuses:21 steiners:196
pn:-9.58725 obtuses:20 steiners:197
pn:0 obtuses:20 steiners:198
pn:0 obtuses:20 steiners:199
Μέσος ρυθμός σύγκλισης: -0.230117
Method: Ant Colony: 
	Original CDT had: 40/70 obtuse faces
	We inserted 199 steiner points:
		Middle of largest edge: 0
		Circumcenter: 1
		Projection: 198
		Polygon Cnetroid: 0
Final obtuse faces: 20/450
Αρχικές αμβλείες: 40
Τελικές αμβλείες: 20

Αρχικά faces: 70
Τελικές faces: 450

Αρχική ενέργεια: 120
Τελική ενέργεια: 219.2

50% μείωση αμβλείων
