Input file: .vscode/temp_4_ant.json
Output file: .vscode/output_4_ant.json
simple-polygon_80_7b8f6c4c
80

POINTS_X
8250 ,8050 ,7850 ,7650 ,8250 ,7850 ,7850 ,7650 ,7850 ,7650 ,7850 ,8050 ,8250 ,7850 ,7650 ,8050 ,8250 ,8250 ,8250 ,7850 ,7650 ,7850 ,8050 ,8250 ,8250 ,7850 ,7650 ,7850 ,8050 ,8250 ,8050 ,7850 ,7850 ,7650 ,600 ,600 ,0 ,200 ,200 ,200 ,400 ,600 ,600 ,400 ,200 ,200 ,200 ,200 ,400 ,600 ,400 ,0 ,200 ,0 ,200 ,200 ,200 ,400 ,200 ,200 ,400 ,600 ,600 ,600 ,600 ,600 ,600 ,600 ,400 ,600 ,600 ,7850 ,7850 ,7850 ,7850 ,8250 ,8250 ,8250 ,8250 ,8250 ,
POINTS_Y
1700 ,1700 ,1500 ,1700 ,2300 ,2300 ,2500 ,2500 ,3100 ,3300 ,3300 ,3300 ,3300 ,4000 ,4200 ,4200 ,4000 ,4200 ,4900 ,4900 ,5100 ,5100 ,5100 ,5100 ,5750 ,5800 ,6000 ,6000 ,5950 ,6600 ,6800 ,6800 ,6600 ,6800 ,6600 ,6800 ,6800 ,6600 ,6000 ,5800 ,5950 ,5950 ,5750 ,5100 ,5100 ,4900 ,4200 ,4000 ,4200 ,4000 ,3300 ,3300 ,3100 ,2500 ,2500 ,2300 ,1700 ,900 ,750 ,200 ,200 ,0 ,700 ,900 ,1500 ,1700 ,2300 ,2500 ,2500 ,3100 ,3300 ,950 ,750 ,200 ,0 ,0 ,200 ,700 ,900 ,1500 ,
REGION_BOUND
0 ,1 ,2 ,3 ,4 ,5 ,6 ,7 ,8 ,9 ,10 ,11 ,12 ,13 ,14 ,15 ,16 ,17 ,18 ,19 ,20 ,21 ,22 ,23 ,24 ,25 ,26 ,27 ,28 ,29 ,30 ,31 ,32 ,33 ,34 ,35 ,36 ,37 ,38 ,39 ,40 ,41 ,42 ,43 ,44 ,45 ,46 ,47 ,48 ,49 ,50 ,51 ,52 ,53 ,54 ,55 ,56 ,57 ,58 ,59 ,60 ,61 ,62 ,63 ,64 ,65 ,66 ,67 ,68 ,69 ,70 ,71 ,72 ,73 ,74 ,75 ,76 ,77 ,78 ,79 ,
NUM CONSTRAINTS
0

ADDITIONAL CONSTRAINTS

METHOD: ant

PARAMETERS:
L: 200, alpha: 3, beta: 0.8, kappa: 8, lambda: 0.5, psi: 3, xi: 1, 
DELAUNAY: true
Ε. Μη κυρτό boundary, ακανόνιστο, που δεν εντάσσεται στις κατηγορίες Α-Δ. 
pn:0 obtuses:45 steiners:3
pn:-0.078117 obtuses:44 steiners:4
pn:0 obtuses:44 steiners:5
pn:0 obtuses:44 steiners:6
pn:0 obtuses:44 steiners:7
pn:0 obtuses:44 steiners:8
pn:0.377404 obtuses:46 steiners:9
pn:0 obtuses:46 steiners:10
pn:0 obtuses:46 steiners:11
pn:0 obtuses:46 steiners:12
pn:0 obtuses:46 steiners:13
pn:-0.29658 obtuses:45 steiners:14
pn:0 obtuses:45 steiners:15
pn:0 obtuses:45 steiners:16
pn:0 obtuses:45 steiners:17
pn:0 obtuses:45 steiners:18
pn:0 obtuses:45 steiners:19
pn:0 obtuses:45 steiners:20
pn:0 obtuses:45 steiners:21
pn:0 obtuses:45 steiners:22
pn:0 obtuses:45 steiners:23
pn:0 obtuses:45 steiners:24
pn:0 obtuses:45 steiners:25
pn:0 obtuses:45 steiners:26
pn:0 obtuses:45 steiners:27
pn:0 obtuses:45 steiners:28
pn:1.2392 obtuses:47 steiners:29
pn:0 obtuses:47 steiners:30
pn:0 obtuses:47 steiners:31
pn:-0.677389 obtuses:46 steiners:32
pn:0 obtuses:46 steiners:33
pn:-0.736239 obtuses:45 steiners:34
pn:0 obtuses:45 steiners:35
pn:0 obtuses:45 steiners:36
pn:0 obtuses:45 steiners:37
pn:0 obtuses:45 steiners:38
pn:0 obtuses:45 steiners:39
pn:0 obtuses:45 steiners:40
pn:0 obtuses:45 steiners:41
pn:0 obtuses:45 steiners:42
pn:0 obtuses:45 steiners:43
pn:0 obtuses:45 steiners:44
pn:0 obtuses:45 steiners:45
pn:0 obtuses:45 steiners:46
pn:0 obtuses:45 steiners:47
pn:0 obtuses:45 steiners:48
pn:0 obtuses:45 steiners:49
pn:0 obtuses:45 steiners:50
pn:0 obtuses:45 steiners:51
pn:0 obtuses:45 steiners:52
pn:0 obtuses:45 steiners:53
pn:0 obtuses:45 steiners:54
pn:0 obtuses:45 steiners:55
pn:0 obtuses:45 steiners:56
pn:0 obtuses:45 steiners:57
pn:0 obtuses:45 steiners:58
pn:0 obtuses:45 steiners:59
pn:-1.3371 obtuses:44 steiners:60
pn:0 obtuses:44 steiners:61
pn:0 obtuses:44 steiners:62
pn:0 obtuses:44 steiners:63
pn:0 obtuses:44 steiners:64
pn:0 obtuses:44 steiners:65
pn:0 obtuses:44 steiners:66
pn:0 obtuses:44 steiners:67
pn:0 obtuses:44 steiners:68
pn:0 obtuses:44 steiners:69
pn:0 obtuses:44 steiners:70
pn:0 obtuses:44 steiners:71
pn:0 obtuses:44 steiners:72
pn:0 obtuses:44 steiners:73
pn:0 obtuses:44 steiners:74
pn:0 obtuses:44 steiners:75
pn:0 obtuses:44 steiners:76
pn:0 obtuses:44 steiners:77
pn:0 obtuses:44 steiners:78
pn:0 obtuses:44 steiners:79
pn:0 obtuses:44 steiners:80
pn:0 obtuses:44 steiners:81
pn:0 obtuses:44 steiners:82
pn:0 obtuses:44 steiners:83
pn:3.71168 obtuses:46 steiners:84
pn:0 obtuses:46 steiners:85
pn:0 obtuses:46 steiners:86
pn:0 obtuses:46 steiners:87
pn:0 obtuses:46 steiners:88
pn:0 obtuses:46 steiners:89
pn:0 obtuses:46 steiners:90
pn:0 obtuses:46 steiners:91
pn:0 obtuses:46 steiners:92
pn:0 obtuses:46 steiners:93
pn:0 obtuses:46 steiners:94
pn:0 obtuses:46 steiners:95
pn:0 obtuses:46 steiners:96
pn:0 obtuses:46 steiners:97
pn:0 obtuses:46 steiners:98
pn:0 obtuses:46 steiners:99
pn:4.23465 obtuses:48 steiners:100
pn:0 obtuses:48 steiners:101
pn:0 obtuses:48 steiners:102
pn:0 obtuses:48 steiners:103
pn:0 obtuses:48 steiners:104
pn:0 obtuses:48 steiners:105
pn:0 obtuses:48 steiners:106
pn:6.45647 obtuses:51 steiners:107
pn:0 obtuses:51 steiners:108
pn:0 obtuses:51 steiners:109
pn:0 obtuses:51 steiners:110
pn:0 obtuses:51 steiners:111
pn:0 obtuses:51 steiners:112
pn:0 obtuses:51 steiners:113
pn:6.48744 obtuses:54 steiners:114
pn:0 obtuses:54 steiners:115
pn:0 obtuses:54 steiners:116
pn:0 obtuses:54 steiners:117
pn:0 obtuses:54 steiners:118
pn:0 obtuses:54 steiners:119
pn:0 obtuses:54 steiners:120
pn:0 obtuses:54 steiners:121
pn:4.41864 obtuses:56 steiners:122
pn:0 obtuses:56 steiners:123
pn:0 obtuses:56 steiners:124
pn:0 obtuses:56 steiners:125
pn:0 obtuses:56 steiners:126
pn:0 obtuses:56 steiners:127
pn:4.47412 obtuses:58 steiners:128
pn:0 obtuses:58 steiners:129
pn:0 obtuses:58 steiners:130
pn:0 obtuses:58 steiners:131
pn:0 obtuses:58 steiners:132
pn:0 obtuses:58 steiners:133
pn:0 obtuses:58 steiners:134
pn:0 obtuses:58 steiners:135
pn:0 obtuses:58 steiners:136
pn:0 obtuses:58 steiners:137
pn:6.93421 obtuses:61 steiners:138
pn:0 obtuses:61 steiners:139
pn:4.50037 obtuses:63 steiners:140
pn:0 obtuses:63 steiners:141
pn:0 obtuses:63 steiners:142
pn:0 obtuses:63 steiners:143
pn:0 obtuses:63 steiners:144
pn:0 obtuses:63 steiners:145
pn:0 obtuses:63 steiners:146
pn:0 obtuses:63 steiners:147
pn:0 obtuses:63 steiners:148
pn:0 obtuses:63 steiners:149
pn:0 obtuses:63 steiners:150
pn:0 obtuses:63 steiners:151
pn:0 obtuses:63 steiners:152
pn:0 obtuses:63 steiners:153
pn:-2.45604 obtuses:62 steiners:154
pn:0 obtuses:62 steiners:155
pn:0 obtuses:62 steiners:156
pn:0 obtuses:62 steiners:157
pn:0 obtuses:62 steiners:158
pn:-2.57728 obtuses:61 steiners:159
pn:0 obtuses:61 steiners:160
pn:0 obtuses:61 steiners:161
pn:0 obtuses:61 steiners:162
pn:0 obtuses:61 steiners:163
pn:5.27463 obtuses:63 steiners:164
pn:0 obtuses:63 steiners:165
pn:0 obtuses:63 steiners:166
pn:0 obtuses:63 steiners:167
pn:0 obtuses:63 steiners:168
pn:0 obtuses:63 steiners:169
pn:0 obtuses:63 steiners:170
pn:0 obtuses:63 steiners:171
pn:0 obtuses:63 steiners:172
pn:0 obtuses:63 steiners:173
pn:0 obtuses:63 steiners:174
pn:0 obtuses:63 steiners:175
pn:0 obtuses:63 steiners:176
pn:0 obtuses:63 steiners:177
pn:-2.84005 obtuses:62 steiners:178
pn:0 obtuses:62 steiners:179
pn:0 obtuses:62 steiners:180
pn:0 obtuses:62 steiners:181
pn:8.57638 obtuses:65 steiners:182
pn:5.53071 obtuses:67 steiners:183
pn:0 obtuses:67 steiners:184
pn:0 obtuses:67 steiners:185
pn:0 obtuses:67 steiners:186
pn:0 obtuses:67 steiners:187
pn:0 obtuses:67 steiners:188
pn:0 obtuses:67 steiners:189
pn:0 obtuses:67 steiners:190
pn:-2.86471 obtuses:66 steiners:191
pn:0 obtuses:66 steiners:192
pn:0 obtuses:66 steiners:193
pn:0 obtuses:66 steiners:194
pn:0 obtuses:66 steiners:195
pn:0 obtuses:66 steiners:196
pn:0 obtuses:66 steiners:197
Ενέργεια τριγωνοποίσης που δεν συγκλίνει: 355.6
Method: Ant Colony: 
	Original CDT had: 46/134 obtuse faces
	We inserted 197 steiner points:
		Middle of largest edge: 0
		Circumcenter: 13
		Projection: 184
		Polygon Cnetroid: 0
Final obtuse faces: 66/524
Αρχικές αμβλείες: 46
Τελικές αμβλείες: 66

Αρχικά faces: 134
Τελικές faces: 524

Αρχική ενέργεια: 138
Τελική ενέργεια: 355.6

-43.4783% αύξηση αμβλείων
