Input file: .vscode/temp_4_ls.json
Output file: .vscode/output_4_ls.json
simple-polygon_80_7b8f6c4c
80

POINTS_X
8250 ,8050 ,7850 ,7650 ,8250 ,7850 ,7850 ,7650 ,7850 ,7650 ,7850 ,8050 ,8250 ,7850 ,7650 ,8050 ,8250 ,8250 ,8250 ,7850 ,7650 ,7850 ,8050 ,8250 ,8250 ,7850 ,7650 ,7850 ,8050 ,8250 ,8050 ,7850 ,7850 ,7650 ,600 ,600 ,0 ,200 ,200 ,200 ,400 ,600 ,600 ,400 ,200 ,200 ,200 ,200 ,400 ,600 ,400 ,0 ,200 ,0 ,200 ,200 ,200 ,400 ,200 ,200 ,400 ,600 ,600 ,600 ,600 ,600 ,600 ,600 ,400 ,600 ,600 ,7850 ,7850 ,7850 ,7850 ,8250 ,8250 ,8250 ,8250 ,8250 ,
POINTS_Y
1700 ,1700 ,1500 ,1700 ,2300 ,2300 ,2500 ,2500 ,3100 ,3300 ,3300 ,3300 ,3300 ,4000 ,4200 ,4200 ,4000 ,4200 ,4900 ,4900 ,5100 ,5100 ,5100 ,5100 ,5750 ,5800 ,6000 ,6000 ,5950 ,6600 ,6800 ,6800 ,6600 ,6800 ,6600 ,6800 ,6800 ,6600 ,6000 ,5800 ,5950 ,5950 ,5750 ,5100 ,5100 ,4900 ,4200 ,4000 ,4200 ,4000 ,3300 ,3300 ,3100 ,2500 ,2500 ,2300 ,1700 ,900 ,750 ,200 ,200 ,0 ,700 ,900 ,1500 ,1700 ,2300 ,2500 ,2500 ,3100 ,3300 ,950 ,750 ,200 ,0 ,0 ,200 ,700 ,900 ,1500 ,
REGION_BOUND
0 ,1 ,2 ,3 ,4 ,5 ,6 ,7 ,8 ,9 ,10 ,11 ,12 ,13 ,14 ,15 ,16 ,17 ,18 ,19 ,20 ,21 ,22 ,23 ,24 ,25 ,26 ,27 ,28 ,29 ,30 ,31 ,32 ,33 ,34 ,35 ,36 ,37 ,38 ,39 ,40 ,41 ,42 ,43 ,44 ,45 ,46 ,47 ,48 ,49 ,50 ,51 ,52 ,53 ,54 ,55 ,56 ,57 ,58 ,59 ,60 ,61 ,62 ,63 ,64 ,65 ,66 ,67 ,68 ,69 ,70 ,71 ,72 ,73 ,74 ,75 ,76 ,77 ,78 ,79 ,
NUM CONSTRAINTS
0

ADDITIONAL CONSTRAINTS

METHOD: ls

PARAMETERS:
L: 200, alpha: 3, beta: 0.8, kappa: 8, lambda: 0.5, psi: 3, xi: 1, 
DELAUNAY: true
Ε. Μη κυρτό boundary, ακανόνιστο, που δεν εντάσσεται στις κατηγορίες Α-Δ. 
pn:-0.0566991 obtuses:43 steiners:3
Stopping cause triangulation was not improved
iteration: 17 out of: 200
Μέσος ρυθμός σύγκλισης: -0.0188997
Method: Local search
	Inserted: 3 Steiner points
Obtuse faces are now: 43/138
Αρχικές αμβλείες: 46
Τελικές αμβλείες: 43

Αρχικά faces: 134
Τελικές faces: 138

Αρχική ενέργεια: 138
Τελική ενέργεια: 131.4

6.52174% μείωση αμβλείων
