Input file: .vscode/temp_7_ant.json
Output file: .vscode/output_7_ant.json
simple-polygon_250_6e9d9c26
250

POINTS_X
10075 ,10175 ,10275 ,10175 ,10075 ,9975 ,9875 ,9775 ,9975 ,9875 ,9775 ,9675 ,9675 ,9775 ,9875 ,9975 ,10075 ,9975 ,9775 ,9675 ,9675 ,9775 ,9875 ,9975 ,10075 ,9975 ,9875 ,9775 ,9675 ,9675 ,9775 ,9875 ,9675 ,9675 ,9775 ,10025 ,10225 ,10175 ,10075 ,9975 ,9875 ,9975 ,10075 ,10175 ,10275 ,10375 ,11125 ,11125 ,11125 ,10375 ,10275 ,10175 ,10375 ,10275 ,10175 ,10075 ,10075 ,10175 ,10275 ,10375 ,10375 ,10275 ,10175 ,10075 ,10175 ,10275 ,10375 ,10275 ,10375 ,10375 ,10375 ,10275 ,10175 ,10075 ,9975 ,9875 ,9775 ,9675 ,9675 ,9775 ,9975 ,10075 ,10275 ,10375 ,10375 ,10275 ,10175 ,10075 ,9975 ,9875 ,9775 ,9675 ,9575 ,9675 ,9675 ,9825 ,9825 ,10075 ,9825 ,9825 ,9825 ,9675 ,9775 ,9875 ,9975 ,10075 ,10175 ,10275 ,10375 ,10375 ,10425 ,10275 ,10175 ,10075 ,10075 ,9975 ,9975 ,9875 ,9775 ,9675 ,4275 ,3925 ,3825 ,3525 ,3625 ,3725 ,3825 ,3925 ,4025 ,4125 ,4225 ,4225 ,4125 ,4025 ,3925 ,3825 ,3725 ,3625 ,3525 ,3675 ,3675 ,3675 ,3925 ,3675 ,3675 ,3525 ,3525 ,3425 ,3525 ,3525 ,3625 ,3625 ,3725 ,3925 ,4025 ,3925 ,3825 ,3725 ,3725 ,3625 ,3525 ,3525 ,3525 ,3525 ,3525 ,3625 ,3725 ,3825 ,3925 ,4025 ,4125 ,4225 ,4025 ,4125 ,4225 ,4225 ,4125 ,4025 ,3825 ,3725 ,3625 ,3525 ,3525 ,3625 ,3725 ,3825 ,3925 ,4025 ,3925 ,3825 ,3725 ,3625 ,3525 ,3525 ,3725 ,3825 ,3925 ,4025 ,4125 ,4025 ,3925 ,3825 ,3725 ,3625 ,3525 ,3525 ,3625 ,3875 ,4075 ,4125 ,4225 ,4225 ,4225 ,4975 ,4975 ,4975 ,4225 ,4125 ,4125 ,4225 ,4225 ,4125 ,3925 ,3825 ,3825 ,3925 ,4025 ,4025 ,3925 ,3825 ,3725 ,3625 ,3725 ,3625 ,3625 ,3725 ,3825 ,3925 ,4025 ,4225 ,4225 ,4125 ,4025 ,4125 ,4225 ,4875 ,9675 ,9775 ,9875 ,9975 ,
POINTS_Y
5350 ,5350 ,5350 ,5150 ,5150 ,5150 ,5150 ,5150 ,4850 ,4850 ,4850 ,4850 ,4650 ,4650 ,4650 ,4650 ,4650 ,4350 ,4350 ,4350 ,4150 ,4150 ,4150 ,4150 ,3850 ,3850 ,3850 ,3850 ,3850 ,3650 ,3650 ,3650 ,3350 ,3200 ,3200 ,3200 ,3200 ,3350 ,3350 ,3350 ,3350 ,3650 ,3650 ,3650 ,3650 ,3650 ,3750 ,3900 ,4050 ,3850 ,3850 ,3850 ,4150 ,4150 ,4150 ,4150 ,4350 ,4350 ,4350 ,4350 ,4650 ,4650 ,4650 ,4850 ,4850 ,4850 ,4850 ,5150 ,5150 ,5350 ,5650 ,5650 ,5650 ,5650 ,5650 ,5650 ,5650 ,5650 ,5850 ,5850 ,5850 ,5850 ,5850 ,5850 ,6150 ,6150 ,6150 ,6150 ,6150 ,6150 ,6150 ,6150 ,6450 ,6450 ,6650 ,7150 ,7500 ,7600 ,7700 ,7850 ,8050 ,8300 ,8300 ,8300 ,8300 ,8300 ,8300 ,8300 ,8300 ,8600 ,8850 ,8600 ,8600 ,8600 ,8750 ,8750 ,8600 ,8600 ,8600 ,8600 ,8850 ,8750 ,8750 ,8600 ,8600 ,8600 ,8600 ,8600 ,8600 ,8600 ,8600 ,8300 ,8300 ,8300 ,8300 ,8300 ,8300 ,8300 ,8300 ,8050 ,7850 ,7700 ,7600 ,7500 ,7150 ,6650 ,6450 ,6450 ,6150 ,5850 ,5850 ,6150 ,6150 ,6150 ,5850 ,5850 ,5850 ,5850 ,5650 ,5650 ,5650 ,5350 ,5150 ,4850 ,4650 ,4650 ,4650 ,4650 ,4650 ,4650 ,4650 ,4650 ,4350 ,4350 ,4350 ,4150 ,4150 ,4150 ,4350 ,4350 ,4350 ,4350 ,4150 ,4150 ,4150 ,4150 ,4150 ,3850 ,3850 ,3850 ,3850 ,3850 ,3850 ,3650 ,3650 ,3650 ,3650 ,3650 ,3650 ,3350 ,3350 ,3350 ,3350 ,3350 ,3350 ,3200 ,3200 ,3200 ,3200 ,3350 ,3350 ,3650 ,3850 ,3750 ,3900 ,4050 ,4850 ,4850 ,5150 ,5150 ,5350 ,5350 ,5350 ,5350 ,5150 ,5150 ,5150 ,4850 ,4850 ,4850 ,4850 ,4850 ,5150 ,5150 ,5350 ,5350 ,5650 ,5650 ,5650 ,5650 ,5850 ,5850 ,6150 ,6150 ,6150 ,6100 ,5350 ,5350 ,5350 ,5350 ,
REGION_BOUND
0 ,1 ,2 ,3 ,4 ,5 ,6 ,7 ,8 ,9 ,10 ,11 ,12 ,13 ,14 ,15 ,16 ,17 ,18 ,19 ,20 ,21 ,22 ,23 ,24 ,25 ,26 ,27 ,28 ,29 ,30 ,31 ,32 ,33 ,34 ,35 ,36 ,37 ,38 ,39 ,40 ,41 ,42 ,43 ,44 ,45 ,46 ,47 ,48 ,49 ,50 ,51 ,52 ,53 ,54 ,55 ,56 ,57 ,58 ,59 ,60 ,61 ,62 ,63 ,64 ,65 ,66 ,67 ,68 ,69 ,70 ,71 ,72 ,73 ,74 ,75 ,76 ,77 ,78 ,79 ,80 ,81 ,82 ,83 ,84 ,85 ,86 ,87 ,88 ,89 ,90 ,91 ,92 ,93 ,94 ,95 ,96 ,97 ,98 ,99 ,100 ,101 ,102 ,103 ,104 ,105 ,106 ,107 ,108 ,109 ,110 ,111 ,112 ,113 ,114 ,115 ,116 ,117 ,118 ,119 ,120 ,121 ,122 ,123 ,124 ,125 ,126 ,127 ,128 ,129 ,130 ,131 ,132 ,133 ,134 ,135 ,136 ,137 ,138 ,139 ,140 ,141 ,142 ,143 ,144 ,145 ,146 ,147 ,148 ,149 ,150 ,151 ,152 ,153 ,154 ,155 ,156 ,157 ,158 ,159 ,160 ,161 ,162 ,163 ,164 ,165 ,166 ,167 ,168 ,169 ,170 ,171 ,172 ,173 ,174 ,175 ,176 ,177 ,178 ,179 ,180 ,181 ,182 ,183 ,184 ,185 ,186 ,187 ,188 ,189 ,190 ,191 ,192 ,193 ,194 ,195 ,196 ,197 ,198 ,199 ,200 ,201 ,202 ,203 ,204 ,205 ,206 ,207 ,208 ,209 ,210 ,211 ,212 ,213 ,214 ,215 ,216 ,217 ,218 ,219 ,220 ,221 ,222 ,223 ,224 ,225 ,226 ,227 ,228 ,229 ,230 ,231 ,232 ,233 ,234 ,235 ,236 ,237 ,238 ,239 ,240 ,241 ,242 ,243 ,244 ,245 ,246 ,247 ,248 ,249 ,
NUM CONSTRAINTS
0

ADDITIONAL CONSTRAINTS

METHOD: ant

PARAMETERS:
L: 200, alpha: 3, beta: 0.8, kappa: 8, lambda: 0.5, psi: 3, xi: 1, 
DELAUNAY: true
Ε. Μη κυρτό boundary, ακανόνιστο, που δεν εντάσσεται στις κατηγορίες Α-Δ. 
Warning: The Steiner point is too close to an existing point and will not be inserted.
pn:0 obtuses:132 steiners:3
pn:0 obtuses:132 steiners:4
pn:0 obtuses:132 steiners:5
pn:0 obtuses:132 steiners:6
pn:0 obtuses:132 steiners:7
pn:0 obtuses:132 steiners:8
pn:0 obtuses:132 steiners:9
pn:0 obtuses:132 steiners:10
pn:0 obtuses:132 steiners:11
pn:0.0867381 obtuses:133 steiners:12
pn:0 obtuses:133 steiners:13
pn:0 obtuses:133 steiners:14
pn:0 obtuses:133 steiners:15
pn:0 obtuses:133 steiners:16
pn:0 obtuses:133 steiners:17
pn:0 obtuses:133 steiners:18
pn:0 obtuses:133 steiners:19
pn:0 obtuses:133 steiners:20
pn:0 obtuses:133 steiners:21
pn:0 obtuses:133 steiners:22
pn:0 obtuses:133 steiners:23
pn:0 obtuses:133 steiners:24
pn:0 obtuses:133 steiners:25
pn:0 obtuses:133 steiners:26
pn:0 obtuses:133 steiners:27
pn:0 obtuses:133 steiners:28
pn:0 obtuses:133 steiners:29
pn:0 obtuses:133 steiners:30
pn:0 obtuses:133 steiners:31
pn:0 obtuses:133 steiners:32
pn:0 obtuses:133 steiners:33
pn:0 obtuses:133 steiners:34
pn:-0.26036 obtuses:132 steiners:35
pn:0 obtuses:132 steiners:36
pn:0 obtuses:132 steiners:37
pn:0 obtuses:132 steiners:38
pn:0 obtuses:132 steiners:39
pn:0 obtuses:132 steiners:40
pn:0 obtuses:132 steiners:41
pn:0 obtuses:132 steiners:42
pn:0 obtuses:132 steiners:43
pn:0 obtuses:132 steiners:44
pn:0 obtuses:132 steiners:45
pn:-0.345995 obtuses:131 steiners:46
pn:0 obtuses:131 steiners:47
pn:0 obtuses:131 steiners:48
pn:0 obtuses:131 steiners:49
pn:0 obtuses:131 steiners:50
pn:0 obtuses:131 steiners:51
pn:0 obtuses:131 steiners:52
pn:0 obtuses:131 steiners:53
pn:0 obtuses:131 steiners:54
pn:0 obtuses:131 steiners:55
pn:-0.425278 obtuses:130 steiners:56
pn:0 obtuses:130 steiners:57
pn:0 obtuses:130 steiners:58
pn:0 obtuses:130 steiners:59
pn:0 obtuses:130 steiners:60
pn:0 obtuses:130 steiners:61
pn:-0.474895 obtuses:129 steiners:62
pn:0 obtuses:129 steiners:63
pn:0 obtuses:129 steiners:64
pn:0 obtuses:129 steiners:65
pn:0 obtuses:129 steiners:66
pn:0 obtuses:129 steiners:67
pn:0 obtuses:129 steiners:68
pn:0 obtuses:129 steiners:69
pn:0 obtuses:129 steiners:70
pn:0 obtuses:129 steiners:71
pn:0 obtuses:129 steiners:72
Warning: The Steiner point is too close to an existing point and will not be inserted.
pn:0 obtuses:129 steiners:73
pn:0 obtuses:129 steiners:74
pn:0 obtuses:129 steiners:75
pn:0 obtuses:129 steiners:76
pn:0 obtuses:129 steiners:77
pn:0 obtuses:129 steiners:78
pn:0 obtuses:129 steiners:79
pn:0 obtuses:129 steiners:80
pn:0 obtuses:129 steiners:81
pn:0 obtuses:129 steiners:82
pn:0 obtuses:129 steiners:83
pn:0 obtuses:129 steiners:84
pn:0 obtuses:129 steiners:85
pn:0 obtuses:129 steiners:86
pn:0 obtuses:129 steiners:87
pn:0 obtuses:129 steiners:88
pn:0 obtuses:129 steiners:89
pn:0 obtuses:129 steiners:90
pn:0 obtuses:129 steiners:91
pn:0 obtuses:129 steiners:92
pn:0 obtuses:129 steiners:93
pn:0 obtuses:129 steiners:94
Warning: The Steiner point is too close to an existing point and will not be inserted.
pn:0 obtuses:129 steiners:95
pn:0 obtuses:129 steiners:96
pn:0 obtuses:129 steiners:97
pn:0 obtuses:129 steiners:98
pn:0 obtuses:129 steiners:99
pn:0 obtuses:129 steiners:100
pn:0 obtuses:129 steiners:101
pn:0 obtuses:129 steiners:102
pn:0 obtuses:129 steiners:103
pn:0 obtuses:129 steiners:104
pn:0 obtuses:129 steiners:105
pn:0 obtuses:129 steiners:106
pn:0 obtuses:129 steiners:107
pn:0 obtuses:129 steiners:108
pn:0 obtuses:129 steiners:109
pn:0 obtuses:129 steiners:110
pn:0 obtuses:129 steiners:111
pn:0 obtuses:129 steiners:112

Ο αλγόριθμος δεν συγκλίνει: Εκτελούμε τυχαιοποίηση
pn:8.39937 obtuses:139 steiners:113
pn:0 obtuses:139 steiners:114
pn:0 obtuses:139 steiners:115
pn:0 obtuses:139 steiners:116
pn:0 obtuses:139 steiners:117
pn:0 obtuses:139 steiners:118
pn:0 obtuses:139 steiners:119
pn:0 obtuses:139 steiners:120
pn:0 obtuses:139 steiners:121
pn:0 obtuses:139 steiners:122
pn:0 obtuses:139 steiners:123
pn:0 obtuses:139 steiners:124
pn:0 obtuses:139 steiners:125
pn:0 obtuses:139 steiners:126
pn:0 obtuses:139 steiners:127
pn:0 obtuses:139 steiners:128
pn:0 obtuses:139 steiners:129
pn:0 obtuses:139 steiners:130
pn:0 obtuses:139 steiners:131
pn:0 obtuses:139 steiners:132

Η μέθοδος της τυχαιοποίησης δεν συγκλίνει. Σταματάει η διαδικασία
Randomization pn: 8.39937
Ενέργεια τριγωνοποίσης που δεν συγκλίνει: 522.6
Method: Ant Colony: 
	Original CDT had: 132/482 obtuse faces
	We inserted 132 steiner points:
		Middle of largest edge: 1
		Circumcenter: 1
		Projection: 110
		Polygon Cnetroid: 0
Final obtuse faces: 139/713
Αρχικές αμβλείες: 132
Τελικές αμβλείες: 139

Αρχικά faces: 482
Τελικές faces: 713

Αρχική ενέργεια: 396
Τελική ενέργεια: 507.4

-5.30303% αύξηση αμβλείων
