Input file: .vscode/temp_7_ls.json
Output file: .vscode/output_7_ls.json
simple-polygon_250_6e9d9c26
250

POINTS_X
10075 ,10175 ,10275 ,10175 ,10075 ,9975 ,9875 ,9775 ,9975 ,9875 ,9775 ,9675 ,9675 ,9775 ,9875 ,9975 ,10075 ,9975 ,9775 ,9675 ,9675 ,9775 ,9875 ,9975 ,10075 ,9975 ,9875 ,9775 ,9675 ,9675 ,9775 ,9875 ,9675 ,9675 ,9775 ,10025 ,10225 ,10175 ,10075 ,9975 ,9875 ,9975 ,10075 ,10175 ,10275 ,10375 ,11125 ,11125 ,11125 ,10375 ,10275 ,10175 ,10375 ,10275 ,10175 ,10075 ,10075 ,10175 ,10275 ,10375 ,10375 ,10275 ,10175 ,10075 ,10175 ,10275 ,10375 ,10275 ,10375 ,10375 ,10375 ,10275 ,10175 ,10075 ,9975 ,9875 ,9775 ,9675 ,9675 ,9775 ,9975 ,10075 ,10275 ,10375 ,10375 ,10275 ,10175 ,10075 ,9975 ,9875 ,9775 ,9675 ,9575 ,9675 ,9675 ,9825 ,9825 ,10075 ,9825 ,9825 ,9825 ,9675 ,9775 ,9875 ,9975 ,10075 ,10175 ,10275 ,10375 ,10375 ,10425 ,10275 ,10175 ,10075 ,10075 ,9975 ,9975 ,9875 ,9775 ,9675 ,4275 ,3925 ,3825 ,3525 ,3625 ,3725 ,3825 ,3925 ,4025 ,4125 ,4225 ,4225 ,4125 ,4025 ,3925 ,3825 ,3725 ,3625 ,3525 ,3675 ,3675 ,3675 ,3925 ,3675 ,3675 ,3525 ,3525 ,3425 ,3525 ,3525 ,3625 ,3625 ,3725 ,3925 ,4025 ,3925 ,3825 ,3725 ,3725 ,3625 ,3525 ,3525 ,3525 ,3525 ,3525 ,3625 ,3725 ,3825 ,3925 ,4025 ,4125 ,4225 ,4025 ,4125 ,4225 ,4225 ,4125 ,4025 ,3825 ,3725 ,3625 ,3525 ,3525 ,3625 ,3725 ,3825 ,3925 ,4025 ,3925 ,3825 ,3725 ,3625 ,3525 ,3525 ,3725 ,3825 ,3925 ,4025 ,4125 ,4025 ,3925 ,3825 ,3725 ,3625 ,3525 ,3525 ,3625 ,3875 ,4075 ,4125 ,4225 ,4225 ,4225 ,4975 ,4975 ,4975 ,4225 ,4125 ,4125 ,4225 ,4225 ,4125 ,3925 ,3825 ,3825 ,3925 ,4025 ,4025 ,3925 ,3825 ,3725 ,3625 ,3725 ,3625 ,3625 ,3725 ,3825 ,3925 ,4025 ,4225 ,4225 ,4125 ,4025 ,4125 ,4225 ,4875 ,9675 ,9775 ,9875 ,9975 ,
POINTS_Y
5350 ,5350 ,5350 ,5150 ,5150 ,5150 ,5150 ,5150 ,4850 ,4850 ,4850 ,4850 ,4650 ,4650 ,4650 ,4650 ,4650 ,4350 ,4350 ,4350 ,4150 ,4150 ,4150 ,4150 ,3850 ,3850 ,3850 ,3850 ,3850 ,3650 ,3650 ,3650 ,3350 ,3200 ,3200 ,3200 ,3200 ,3350 ,3350 ,3350 ,3350 ,3650 ,3650 ,3650 ,3650 ,3650 ,3750 ,3900 ,4050 ,3850 ,3850 ,3850 ,4150 ,4150 ,4150 ,4150 ,4350 ,4350 ,4350 ,4350 ,4650 ,4650 ,4650 ,4850 ,4850 ,4850 ,4850 ,5150 ,5150 ,5350 ,5650 ,5650 ,5650 ,5650 ,5650 ,5650 ,5650 ,5650 ,5850 ,5850 ,5850 ,5850 ,5850 ,5850 ,6150 ,6150 ,6150 ,6150 ,6150 ,6150 ,6150 ,6150 ,6450 ,6450 ,6650 ,7150 ,7500 ,7600 ,7700 ,7850 ,8050 ,8300 ,8300 ,8300 ,8300 ,8300 ,8300 ,8300 ,8300 ,8600 ,8850 ,8600 ,8600 ,8600 ,8750 ,8750 ,8600 ,8600 ,8600 ,8600 ,8850 ,8750 ,8750 ,8600 ,8600 ,8600 ,8600 ,8600 ,8600 ,8600 ,8600 ,8300 ,8300 ,8300 ,8300 ,8300 ,8300 ,8300 ,8300 ,8050 ,7850 ,7700 ,7600 ,7500 ,7150 ,6650 ,6450 ,6450 ,6150 ,5850 ,5850 ,6150 ,6150 ,6150 ,5850 ,5850 ,5850 ,5850 ,5650 ,5650 ,5650 ,5350 ,5150 ,4850 ,4650 ,4650 ,4650 ,4650 ,4650 ,4650 ,4650 ,4650 ,4350 ,4350 ,4350 ,4150 ,4150 ,4150 ,4350 ,4350 ,4350 ,4350 ,4150 ,4150 ,4150 ,4150 ,4150 ,3850 ,3850 ,3850 ,3850 ,3850 ,3850 ,3650 ,3650 ,3650 ,3650 ,3650 ,3650 ,3350 ,3350 ,3350 ,3350 ,3350 ,3350 ,3200 ,3200 ,3200 ,3200 ,3350 ,3350 ,3650 ,3850 ,3750 ,3900 ,4050 ,4850 ,4850 ,5150 ,5150 ,5350 ,5350 ,5350 ,5350 ,5150 ,5150 ,5150 ,4850 ,4850 ,4850 ,4850 ,4850 ,5150 ,5150 ,5350 ,5350 ,5650 ,5650 ,5650 ,5650 ,5850 ,5850 ,6150 ,6150 ,6150 ,6100 ,5350 ,5350 ,5350 ,5350 ,
REGION_BOUND
0 ,1 ,2 ,3 ,4 ,5 ,6 ,7 ,8 ,9 ,10 ,11 ,12 ,13 ,14 ,15 ,16 ,17 ,18 ,19 ,20 ,21 ,22 ,23 ,24 ,25 ,26 ,27 ,28 ,29 ,30 ,31 ,32 ,33 ,34 ,35 ,36 ,37 ,38 ,39 ,40 ,41 ,42 ,43 ,44 ,45 ,46 ,47 ,48 ,49 ,50 ,51 ,52 ,53 ,54 ,55 ,56 ,57 ,58 ,59 ,60 ,61 ,62 ,63 ,64 ,65 ,66 ,67 ,68 ,69 ,70 ,71 ,72 ,73 ,74 ,75 ,76 ,77 ,78 ,79 ,80 ,81 ,82 ,83 ,84 ,85 ,86 ,87 ,88 ,89 ,90 ,91 ,92 ,93 ,94 ,95 ,96 ,97 ,98 ,99 ,100 ,101 ,102 ,103 ,104 ,105 ,106 ,107 ,108 ,109 ,110 ,111 ,112 ,113 ,114 ,115 ,116 ,117 ,118 ,119 ,120 ,121 ,122 ,123 ,124 ,125 ,126 ,127 ,128 ,129 ,130 ,131 ,132 ,133 ,134 ,135 ,136 ,137 ,138 ,139 ,140 ,141 ,142 ,143 ,144 ,145 ,146 ,147 ,148 ,149 ,150 ,151 ,152 ,153 ,154 ,155 ,156 ,157 ,158 ,159 ,160 ,161 ,162 ,163 ,164 ,165 ,166 ,167 ,168 ,169 ,170 ,171 ,172 ,173 ,174 ,175 ,176 ,177 ,178 ,179 ,180 ,181 ,182 ,183 ,184 ,185 ,186 ,187 ,188 ,189 ,190 ,191 ,192 ,193 ,194 ,195 ,196 ,197 ,198 ,199 ,200 ,201 ,202 ,203 ,204 ,205 ,206 ,207 ,208 ,209 ,210 ,211 ,212 ,213 ,214 ,215 ,216 ,217 ,218 ,219 ,220 ,221 ,222 ,223 ,224 ,225 ,226 ,227 ,228 ,229 ,230 ,231 ,232 ,233 ,234 ,235 ,236 ,237 ,238 ,239 ,240 ,241 ,242 ,243 ,244 ,245 ,246 ,247 ,248 ,249 ,
NUM CONSTRAINTS
0

ADDITIONAL CONSTRAINTS

METHOD: ls

PARAMETERS:
L: 200, alpha: 3, beta: 0.8, kappa: 8, lambda: 0.5, psi: 3, xi: 1, 
DELAUNAY: true
Ε. Μη κυρτό boundary, ακανόνιστο, που δεν εντάσσεται στις κατηγορίες Α-Δ. 
Warning: The Steiner point is too close to an existing point and will not be inserted.
pn:-0.0190449 obtuses:129 steiners:3
pn:-0.0270512 obtuses:128 steiners:4
pn:-0.0351486 obtuses:127 steiners:5
pn:-0.0433584 obtuses:126 steiners:6
Warning: The Steiner point is too close to an existing point and will not be inserted.
pn:-0.0516908 obtuses:125 steiners:7
pn:-0.0601519 obtuses:124 steiners:8

Ο αλγόριθμος δεν συγκλίνει: Εκτελούμε τυχαιοποίηση
pn:0.721608 obtuses:135 steiners:9
pn:0 obtuses:135 steiners:10
pn:0 obtuses:135 steiners:11
pn:0 obtuses:135 steiners:12
pn:0 obtuses:135 steiners:13
pn:0 obtuses:135 steiners:14
pn:0 obtuses:135 steiners:15
pn:0 obtuses:135 steiners:16
pn:0 obtuses:135 steiners:17
pn:0 obtuses:135 steiners:18
pn:0 obtuses:135 steiners:19
pn:0 obtuses:135 steiners:20
pn:0 obtuses:135 steiners:21
pn:0 obtuses:135 steiners:22
pn:0 obtuses:135 steiners:23
pn:0 obtuses:135 steiners:24
pn:0 obtuses:135 steiners:25
pn:0 obtuses:135 steiners:26
pn:0 obtuses:135 steiners:27
pn:0 obtuses:135 steiners:28

Η μέθοδος της τυχαιοποίησης δεν συγκλίνει. Σταματάει η διαδικασία
iteration: 51 out of: 200
Randomization pn: 0.721608
Ενέργεια τριγωνοποίσης που δεν συγκλίνει: 427.4
Method: Local search
	Inserted: 28 Steiner points
Obtuse faces are now: 135/503
Αρχικές αμβλείες: 132
Τελικές αμβλείες: 135

Αρχικά faces: 482
Τελικές faces: 503

Αρχική ενέργεια: 396
Τελική ενέργεια: 412.2

-2.27273% αύξηση αμβλείων
