Input file: .vscode/temp_1_ls.json
Output file: .vscode/output_1_ls.json
simple-polygon-exterior-20_250_eb5ab92f
250

POINTS_X
9 ,8 ,0 ,0 ,17 ,10 ,-19 ,-17 ,-28 ,-38 ,-25 ,-30 ,-44 ,-40 ,-46 ,-46 ,-57 ,-72 ,-73 ,-80 ,-99 ,-93 ,-86 ,-90 ,-88 ,-96 ,-94 ,-94 ,-84 ,-83 ,-61 ,-60 ,-63 ,-69 ,-70 ,-77 ,-82 ,-82 ,-75 ,-70 ,-65 ,-62 ,-47 ,-45 ,-44 ,-46 ,-42 ,-47 ,-43 ,-54 ,-56 ,-63 ,-50 ,-39 ,-30 ,-30 ,-38 ,-35 ,-25 ,-18 ,-5 ,-2 ,5 ,17 ,26 ,39 ,49 ,51 ,50 ,54 ,58 ,64 ,69 ,70 ,70 ,75 ,85 ,86 ,85 ,82 ,79 ,66 ,64 ,64 ,52 ,49 ,40 ,43 ,42 ,38 ,36 ,41 ,40 ,33 ,25 ,23 ,20 ,24 ,29 ,29 ,26 ,17 ,31 ,38 ,35 ,62 ,63 ,42 ,38 ,17 ,8 ,1 ,-3 ,-4 ,6 ,7 ,0 ,-3 ,-4 ,-12 ,-20 ,-36 ,-24 ,-16 ,-18 ,-16 ,-13 ,-12 ,-14 ,-17 ,-20 ,-26 ,-28 ,-33 ,-37 ,-43 ,-55 ,-70 ,-61 ,-60 ,-69 ,-92 ,-97 ,-97 ,-88 ,-87 ,-83 ,-80 ,-78 ,-76 ,-59 ,-39 ,-42 ,-50 ,-53 ,-61 ,-66 ,-58 ,-61 ,-64 ,-67 ,-84 ,-96 ,-83 ,-77 ,-70 ,-67 ,-53 ,-29 ,-28 ,-19 ,-12 ,-21 ,-22 ,-18 ,-16 ,-11 ,-5 ,-7 ,-1 ,1 ,2 ,7 ,12 ,7 ,3 ,7 ,0 ,-3 ,0 ,5 ,6 ,14 ,15 ,19 ,25 ,28 ,31 ,40 ,51 ,52 ,59 ,60 ,69 ,70 ,55 ,42 ,57 ,70 ,77 ,99 ,93 ,92 ,91 ,92 ,91 ,95 ,98 ,92 ,93 ,83 ,76 ,75 ,68 ,63 ,60 ,54 ,59 ,66 ,69 ,77 ,93 ,79 ,71 ,74 ,82 ,96 ,82 ,83 ,81 ,78 ,53 ,54 ,53 ,51 ,49 ,32 ,40 ,37 ,16 ,
POINTS_Y
-79 ,-84 ,-78 ,-75 ,-72 ,-49 ,-62 ,-66 ,-71 ,-81 ,-89 ,-94 ,-95 ,-84 ,-82 ,-79 ,-84 ,-87 ,-96 ,-95 ,-97 ,-86 ,-79 ,-68 ,-61 ,-36 ,-30 ,-20 ,-29 ,-30 ,-26 ,-20 ,-14 ,-19 ,-19 ,-16 ,-14 ,-3 ,0 ,6 ,0 ,-2 ,12 ,7 ,7 ,-3 ,-6 ,-26 ,-30 ,-50 ,-62 ,-75 ,-60 ,-67 ,-68 ,-63 ,-56 ,-54 ,-54 ,-39 ,-39 ,-47 ,-41 ,-35 ,-37 ,-49 ,-47 ,-45 ,-37 ,-21 ,-19 ,-17 ,-19 ,-14 ,0 ,0 ,11 ,35 ,36 ,35 ,38 ,39 ,37 ,20 ,12 ,8 ,27 ,33 ,33 ,39 ,41 ,42 ,61 ,57 ,58 ,52 ,42 ,41 ,41 ,33 ,22 ,21 ,12 ,8 ,-1 ,-8 ,-14 ,-15 ,-24 ,-25 ,-22 ,-17 ,-20 ,-7 ,-6 ,-4 ,14 ,17 ,17 ,10 ,-5 ,4 ,4 ,16 ,34 ,36 ,38 ,42 ,44 ,49 ,51 ,43 ,39 ,33 ,46 ,47 ,39 ,39 ,26 ,20 ,19 ,12 ,9 ,35 ,36 ,51 ,49 ,55 ,53 ,55 ,50 ,61 ,63 ,60 ,62 ,56 ,63 ,64 ,66 ,70 ,72 ,74 ,85 ,84 ,80 ,85 ,88 ,88 ,72 ,73 ,87 ,85 ,77 ,73 ,64 ,62 ,60 ,54 ,52 ,49 ,34 ,29 ,31 ,48 ,59 ,66 ,73 ,75 ,97 ,95 ,97 ,94 ,89 ,98 ,93 ,91 ,93 ,85 ,80 ,70 ,66 ,71 ,58 ,59 ,80 ,89 ,96 ,95 ,99 ,79 ,81 ,49 ,40 ,36 ,27 ,15 ,-9 ,-17 ,-17 ,-29 ,-24 ,-22 ,-18 ,-29 ,-41 ,-39 ,-48 ,-49 ,-48 ,-46 ,-43 ,-50 ,-62 ,-61 ,-70 ,-74 ,-83 ,-97 ,-91 ,-86 ,-87 ,-90 ,-82 ,-80 ,-77 ,-71 ,-68 ,-80 ,-90 ,-81 ,
REGION_BOUND
20 ,237 ,236 ,217 ,210 ,208 ,193 ,188 ,162 ,143 ,
NUM CONSTRAINTS
198

ADDITIONAL CONSTRAINTS
[0,1] ,[1,2] ,[3,4] ,[4,5] ,[5,6] ,[6,7] ,[7,8] ,[8,9] ,[9,10] ,[11,12] ,[12,13] ,[13,14] ,[14,15] ,[15,16] ,[16,17] ,[18,19] ,[19,20] ,[20,21] ,[21,22] ,[22,23] ,[23,24] ,[24,25] ,[25,26] ,[26,27] ,[27,28] ,[28,29] ,[29,30] ,[34,35] ,[35,36] ,[37,38] ,[38,39] ,[40,41] ,[41,42] ,[43,44] ,[44,45] ,[46,47] ,[47,48] ,[48,49] ,[49,50] ,[51,52] ,[52,53] ,[53,54] ,[55,56] ,[57,58] ,[58,59] ,[59,60] ,[60,61] ,[61,62] ,[64,65] ,[65,66] ,[67,68] ,[69,70] ,[70,71] ,[73,74] ,[75,76] ,[76,77] ,[78,79] ,[79,80] ,[80,81] ,[81,82] ,[82,83] ,[84,85] ,[86,87] ,[87,88] ,[88,89] ,[89,90] ,[91,92] ,[92,93] ,[93,94] ,[95,96] ,[96,97] ,[97,98] ,[98,99] ,[99,100] ,[100,101] ,[101,102] ,[102,103] ,[103,104] ,[105,106] ,[106,107] ,[107,108] ,[108,109] ,[109,110] ,[111,112] ,[112,113] ,[115,116] ,[116,117] ,[117,118] ,[118,119] ,[119,120] ,[120,121] ,[121,122] ,[122,123] ,[123,124] ,[124,125] ,[125,126] ,[126,127] ,[127,128] ,[128,129] ,[129,130] ,[130,131] ,[131,132] ,[133,134] ,[134,135] ,[135,136] ,[137,138] ,[138,139] ,[139,140] ,[140,141] ,[141,142] ,[142,143] ,[143,144] ,[144,145] ,[145,146] ,[146,147] ,[148,149] ,[149,150] ,[150,151] ,[151,152] ,[154,155] ,[155,156] ,[156,157] ,[158,159] ,[160,161] ,[161,162] ,[162,163] ,[164,165] ,[166,167] ,[167,168] ,[168,169] ,[169,170] ,[170,171] ,[172,173] ,[173,174] ,[174,175] ,[175,176] ,[176,177] ,[177,178] ,[178,179] ,[179,180] ,[180,181] ,[181,182] ,[182,183] ,[183,184] ,[185,186] ,[186,187] ,[187,188] ,[188,189] ,[189,190] ,[190,191] ,[192,193] ,[193,194] ,[194,195] ,[196,197] ,[197,198] ,[198,199] ,[199,200] ,[200,201] ,[201,202] ,[202,203] ,[203,204] ,[204,205] ,[205,206] ,[206,207] ,[207,208] ,[208,209] ,[209,210] ,[210,211] ,[211,212] ,[212,213] ,[213,214] ,[214,215] ,[215,216] ,[216,217] ,[217,218] ,[218,219] ,[220,221] ,[221,222] ,[224,225] ,[225,226] ,[226,227] ,[227,228] ,[228,229] ,[229,230] ,[230,231] ,[231,232] ,[233,234] ,[235,236] ,[237,238] ,[238,239] ,[240,241] ,[242,243] ,[243,244] ,[244,245] ,[245,246] ,[246,247] ,[247,248] ,[249,0] ,
METHOD: ls

PARAMETERS:
L: 200, alpha: 3, beta: 0.8, kappa: 8, lambda: 0.5, psi: 3, xi: 1, 
DELAUNAY: true
Γ. ΚΥΡΤΟ ΠΕΡΙΒΛΗΜΑ (ΚΛΕΙΣΤΟ)
Warning: The Steiner point is too close to an existing point and will not be inserted.
pn:-0.00984554 obtuses:250 steiners:3
pn:-0.0139321 obtuses:249 steiners:4
pn:-0.0180339 obtuses:248 steiners:5
pn:-0.0221609 obtuses:247 steiners:6
pn:-0.0263171 obtuses:246 steiners:7
pn:-0.0305046 obtuses:245 steiners:8
pn:-0.0347247 obtuses:244 steiners:9
pn:-0.0389784 obtuses:243 steiners:10
pn:-0.0432663 obtuses:242 steiners:11
pn:-0.0475891 obtuses:241 steiners:12
pn:-0.0519474 obtuses:240 steiners:13

Ο αλγόριθμος δεν συγκλίνει: Εκτελούμε τυχαιοποίηση
pn:0.111983 obtuses:242 steiners:14
pn:0 obtuses:242 steiners:15
pn:0 obtuses:242 steiners:16
pn:0 obtuses:242 steiners:17
pn:0 obtuses:242 steiners:18
pn:0 obtuses:242 steiners:19
pn:0 obtuses:242 steiners:20
pn:0 obtuses:242 steiners:21
pn:0 obtuses:242 steiners:22
pn:0 obtuses:242 steiners:23
pn:0 obtuses:242 steiners:24
pn:0 obtuses:242 steiners:25
pn:0 obtuses:242 steiners:26
pn:0 obtuses:242 steiners:27
pn:0 obtuses:242 steiners:28
pn:0 obtuses:242 steiners:29
pn:0 obtuses:242 steiners:30
pn:0 obtuses:242 steiners:31
pn:0 obtuses:242 steiners:32
pn:0 obtuses:242 steiners:33

Η μέθοδος της τυχαιοποίησης δεν συγκλίνει. Σταματάει η διαδικασία
iteration: 52 out of: 200
Randomization pn: 0.111983
Μέσος ρυθμός σύγκλισης: -0.0068278
Method: Local search
	Inserted: 33 Steiner points
Obtuse faces are now: 242/507
Αρχικές αμβλείες: 253
Τελικές αμβλείες: 242

Αρχικά faces: 488
Τελικές faces: 507

Αρχική ενέργεια: 759
Τελική ενέργεια: 737.2

4.34783% μείωση αμβλείων
