Input file: .vscode/temp_1_ant.json
Output file: .vscode/output_1_ant.json
point-set_10_c04b0024
10

POINTS_X
10 ,25 ,34 ,39 ,31 ,26 ,0 ,43 ,37 ,16 ,
POINTS_Y
3 ,0 ,0 ,25 ,20 ,9 ,26 ,26 ,30 ,10 ,
REGION_BOUND
6 ,0 ,1 ,2 ,7 ,8 ,
NUM CONSTRAINTS
0

ADDITIONAL CONSTRAINTS

METHOD: ant

PARAMETERS:
L: 200, alpha: 3, beta: 0.8, kappa: 8, lambda: 0.5, psi: 3, xi: 1, 
DELAUNAY: true
Α. ΚΥΡΤΟ ΠΕΡΙΒΛΗΜΑ ΧΩΡΙΣ ΠΕΡΙΟΡΙΣΜΟΥΣ
pn:0 obtuses:7 steiners:3
pn:0 obtuses:7 steiners:4
pn:0.59841 obtuses:8 steiners:5
pn:-0.732395 obtuses:7 steiners:6
pn:1.63032 obtuses:9 steiners:7
pn:0 obtuses:9 steiners:8
pn:0 obtuses:9 steiners:9
pn:-1.1179 obtuses:8 steiners:10
pn:2.34124 obtuses:10 steiners:11
pn:0 obtuses:10 steiners:12
pn:-1.3163 obtuses:9 steiners:13
pn:-1.58934 obtuses:8 steiners:14
pn:1.70718 obtuses:9 steiners:15
pn:0 obtuses:9 steiners:16
pn:3.31005 obtuses:11 steiners:17
pn:0 obtuses:11 steiners:18
pn:0 obtuses:11 steiners:19
pn:0 obtuses:11 steiners:20
pn:-1.95347 obtuses:10 steiners:21
pn:2.0488 obtuses:11 steiners:22
pn:0 obtuses:11 steiners:23
pn:0 obtuses:11 steiners:24
pn:-2.33478 obtuses:10 steiners:25
pn:0 obtuses:10 steiners:26
pn:0 obtuses:10 steiners:27
pn:0 obtuses:10 steiners:28
pn:0 obtuses:10 steiners:29
pn:0 obtuses:10 steiners:30
pn:-3.21321 obtuses:9 steiners:31
pn:0 obtuses:9 steiners:32
pn:-3.82765 obtuses:8 steiners:33
pn:0 obtuses:8 steiners:34
pn:0 obtuses:8 steiners:35
pn:4.18102 obtuses:9 steiners:36
pn:0 obtuses:9 steiners:37
pn:7.52471 obtuses:11 steiners:38
pn:6.43122 obtuses:13 steiners:39
pn:-3.16152 obtuses:12 steiners:40
pn:0 obtuses:12 steiners:41
pn:0 obtuses:12 steiners:42
pn:0 obtuses:12 steiners:43
pn:0 obtuses:12 steiners:44
pn:-3.87184 obtuses:11 steiners:45
pn:3.95886 obtuses:12 steiners:46
pn:0 obtuses:12 steiners:47
pn:0 obtuses:12 steiners:48
pn:0 obtuses:12 steiners:49
pn:0 obtuses:12 steiners:50
pn:0 obtuses:12 steiners:51
pn:0 obtuses:12 steiners:52
pn:-4.56796 obtuses:11 steiners:53
pn:0 obtuses:11 steiners:54
pn:-5.19426 obtuses:10 steiners:55
pn:0 obtuses:10 steiners:56
pn:10.3009 obtuses:12 steiners:57
pn:-5.00303 obtuses:11 steiners:58
pn:0 obtuses:11 steiners:59
pn:0 obtuses:11 steiners:60
pn:0 obtuses:11 steiners:61
pn:0 obtuses:11 steiners:62
pn:10.4407 obtuses:13 steiners:63
pn:9.08672 obtuses:15 steiners:64
pn:0 obtuses:15 steiners:65
pn:0 obtuses:15 steiners:66
pn:0 obtuses:15 steiners:67
pn:0 obtuses:15 steiners:68
pn:0 obtuses:15 steiners:69
pn:8.69869 obtuses:17 steiners:70
pn:7.84128 obtuses:19 steiners:71
pn:0 obtuses:19 steiners:72
pn:0 obtuses:19 steiners:73
pn:-3.97388 obtuses:18 steiners:74
pn:0 obtuses:18 steiners:75
pn:0 obtuses:18 steiners:76
pn:0 obtuses:18 steiners:77
pn:0 obtuses:18 steiners:78
pn:0 obtuses:18 steiners:79
pn:0 obtuses:18 steiners:80
pn:0 obtuses:18 steiners:81
pn:0 obtuses:18 steiners:82
pn:0 obtuses:18 steiners:83
pn:0 obtuses:18 steiners:84
pn:8.90286 obtuses:20 steiners:85
pn:-4.38553 obtuses:19 steiners:86
pn:0 obtuses:19 steiners:87
pn:0 obtuses:19 steiners:88
pn:0 obtuses:19 steiners:89
pn:0 obtuses:19 steiners:90
pn:-4.89303 obtuses:18 steiners:91
pn:0 obtuses:18 steiners:92
pn:5.00117 obtuses:19 steiners:93
pn:0 obtuses:19 steiners:94
pn:0 obtuses:19 steiners:95
pn:0 obtuses:19 steiners:96
pn:9.65797 obtuses:21 steiners:97
pn:0 obtuses:21 steiners:98
pn:4.58218 obtuses:22 steiners:99
pn:8.65756 obtuses:24 steiners:100
pn:0 obtuses:24 steiners:101
pn:0 obtuses:24 steiners:102
pn:-4.36233 obtuses:23 steiners:103
pn:4.40489 obtuses:24 steiners:104
pn:0 obtuses:24 steiners:105
pn:-4.49001 obtuses:23 steiners:106
pn:0 obtuses:23 steiners:107
pn:0 obtuses:23 steiners:108
pn:0 obtuses:23 steiners:109
Warning: The Steiner point is too close to an existing point and will not be inserted.
pn:-4.86743 obtuses:22 steiners:110
pn:0 obtuses:22 steiners:111
pn:0 obtuses:22 steiners:112
pn:0 obtuses:22 steiners:113
pn:0 obtuses:22 steiners:114
pn:0 obtuses:22 steiners:115
pn:0 obtuses:22 steiners:116
Warning: The Steiner point is too close to an existing point and will not be inserted.
pn:0 obtuses:22 steiners:117
pn:-5.46607 obtuses:21 steiners:118
pn:0 obtuses:21 steiners:119
pn:0 obtuses:21 steiners:120
pn:0 obtuses:21 steiners:121
pn:0 obtuses:21 steiners:122
Warning: The Steiner point is too close to an existing point and will not be inserted.
pn:-5.97676 obtuses:20 steiners:123
pn:0 obtuses:20 steiners:124
pn:0 obtuses:20 steiners:125
Warning: The Steiner point is too close to an existing point and will not be inserted.
pn:0 obtuses:20 steiners:126
pn:0 obtuses:20 steiners:127
Warning: The Steiner point is too close to an existing point and will not be inserted.
pn:0 obtuses:20 steiners:128
pn:0 obtuses:20 steiners:129
pn:0 obtuses:20 steiners:130
pn:0 obtuses:20 steiners:131
pn:0 obtuses:20 steiners:132
pn:0 obtuses:20 steiners:133
Warning: The Steiner point is too close to an existing point and will not be inserted.
pn:0 obtuses:20 steiners:134
pn:0 obtuses:20 steiners:135
pn:0 obtuses:20 steiners:136
pn:0 obtuses:20 steiners:137
Warning: The Steiner point is too close to an existing point and will not be inserted.
pn:0 obtuses:20 steiners:138
pn:0 obtuses:20 steiners:139
pn:-7.15538 obtuses:19 steiners:140
pn:0 obtuses:19 steiners:141
pn:0 obtuses:19 steiners:142
pn:0 obtuses:19 steiners:143
pn:14.3619 obtuses:21 steiners:144
pn:0 obtuses:21 steiners:145
pn:0 obtuses:21 steiners:146
pn:0 obtuses:21 steiners:147
pn:0 obtuses:21 steiners:148
pn:0 obtuses:21 steiners:149
pn:0 obtuses:21 steiners:150
pn:0 obtuses:21 steiners:151
pn:0 obtuses:21 steiners:152
pn:0 obtuses:21 steiners:153
pn:13.9641 obtuses:23 steiners:154
pn:12.8824 obtuses:25 steiners:155
pn:0 obtuses:25 steiners:156
Warning: The Steiner point is too close to an existing point and will not be inserted.
pn:-6.38862 obtuses:24 steiners:157
pn:0 obtuses:24 steiners:158
pn:0 obtuses:24 steiners:159
pn:0 obtuses:24 steiners:160
pn:0 obtuses:24 steiners:161
pn:0 obtuses:24 steiners:162
pn:0 obtuses:24 steiners:163
Warning: The Steiner point is too close to an existing point and will not be inserted.
pn:0 obtuses:24 steiners:164
pn:0 obtuses:24 steiners:165
pn:0 obtuses:24 steiners:166
pn:0 obtuses:24 steiners:167
pn:0 obtuses:24 steiners:168
pn:0 obtuses:24 steiners:169
pn:0 obtuses:24 steiners:170
pn:0 obtuses:24 steiners:171
pn:0 obtuses:24 steiners:172
pn:0 obtuses:24 steiners:173
pn:0 obtuses:24 steiners:174
pn:0 obtuses:24 steiners:175
pn:0 obtuses:24 steiners:176
pn:0 obtuses:24 steiners:177
pn:0 obtuses:24 steiners:178
pn:0 obtuses:24 steiners:179
pn:0 obtuses:24 steiners:180
pn:0 obtuses:24 steiners:181
pn:0 obtuses:24 steiners:182
pn:0 obtuses:24 steiners:183
pn:0 obtuses:24 steiners:184
pn:0 obtuses:24 steiners:185
pn:0 obtuses:24 steiners:186
pn:0 obtuses:24 steiners:187
pn:0 obtuses:24 steiners:188
pn:0 obtuses:24 steiners:189
pn:0 obtuses:24 steiners:190
Warning: The Steiner point is too close to an existing point and will not be inserted.
pn:0 obtuses:24 steiners:191
pn:0 obtuses:24 steiners:192
pn:-8.19271 obtuses:23 steiners:193
pn:0 obtuses:23 steiners:194
Randomization pn: 0
Ενέργεια τριγωνοποίσης που δεν συγκλίνει: 224.2
Method: Ant Colony: 
	Original CDT had: 9/12 obtuse faces
	We inserted 194 steiner points:
		Middle of largest edge: 12
		Circumcenter: 19
		Projection: 163
		Polygon Cnetroid: 0
Final obtuse faces: 23/381
Αρχικές αμβλείες: 9
Τελικές αμβλείες: 23

Αρχικά faces: 12
Τελικές faces: 381

Αρχική ενέργεια: 27
Τελική ενέργεια: 224.2

-155.556% αύξηση αμβλείων
