Input file: .vscode/temp_5_ant.json
Output file: .vscode/output_5_ant.json
point-set_80_1675b331
80

POINTS_X
18 ,54 ,47 ,9 ,2 ,63 ,18 ,18 ,47 ,61 ,25 ,20 ,53 ,61 ,43 ,51 ,47 ,44 ,9 ,51 ,40 ,6 ,55 ,30 ,35 ,33 ,53 ,28 ,62 ,43 ,3 ,4 ,23 ,16 ,13 ,21 ,39 ,22 ,16 ,13 ,33 ,34 ,53 ,22 ,20 ,28 ,38 ,35 ,35 ,63 ,24 ,28 ,33 ,15 ,26 ,43 ,8 ,13 ,10 ,48 ,63 ,18 ,59 ,0 ,51 ,58 ,53 ,4 ,13 ,29 ,54 ,14 ,11 ,55 ,0 ,17 ,3 ,42 ,39 ,25 ,
POINTS_Y
47 ,36 ,55 ,11 ,15 ,52 ,23 ,17 ,39 ,62 ,40 ,24 ,2 ,20 ,7 ,49 ,8 ,10 ,28 ,9 ,4 ,53 ,45 ,9 ,28 ,37 ,51 ,22 ,39 ,62 ,27 ,65 ,27 ,21 ,7 ,0 ,34 ,9 ,15 ,74 ,32 ,23 ,17 ,55 ,19 ,57 ,22 ,53 ,44 ,32 ,32 ,2 ,14 ,31 ,15 ,27 ,17 ,57 ,21 ,32 ,17 ,62 ,49 ,57 ,40 ,9 ,42 ,35 ,44 ,64 ,34 ,19 ,49 ,26 ,45 ,18 ,2 ,14 ,46 ,66 ,
REGION_BOUND
74 ,4 ,76 ,35 ,12 ,65 ,60 ,5 ,9 ,39 ,31 ,63 ,
NUM CONSTRAINTS
0

ADDITIONAL CONSTRAINTS

METHOD: ant

PARAMETERS:
L: 200, alpha: 3, beta: 0.8, kappa: 8, lambda: 0.5, psi: 3, xi: 1, 
DELAUNAY: true
Α. ΚΥΡΤΟ ΠΕΡΙΒΛΗΜΑ ΧΩΡΙΣ ΠΕΡΙΟΡΙΣΜΟΥΣ
pn:0 obtuses:54 steiners:3
pn:0 obtuses:54 steiners:4
pn:0 obtuses:54 steiners:5
Warning: The Steiner point is too close to an existing point and will not be inserted.
pn:0 obtuses:54 steiners:6
pn:-0.121259 obtuses:53 steiners:7
Warning: The Steiner point is too close to an existing point and will not be inserted.
pn:0 obtuses:53 steiners:8
pn:0.1587 obtuses:54 steiners:9
Warning: The Steiner point is too close to an existing point and will not be inserted.
pn:0 obtuses:54 steiners:10
pn:0 obtuses:54 steiners:11
Warning: The Steiner point is too close to an existing point and will not be inserted.
pn:0 obtuses:54 steiners:12
pn:0 obtuses:54 steiners:13
Warning: The Steiner point is too close to an existing point and will not be inserted.
pn:0 obtuses:54 steiners:14
pn:-0.270928 obtuses:53 steiners:15
Warning: The Steiner point is too close to an existing point and will not be inserted.
pn:0 obtuses:53 steiners:16
pn:0 obtuses:53 steiners:17
Warning: The Steiner point is too close to an existing point and will not be inserted.
pn:-0.333253 obtuses:52 steiners:18
pn:0 obtuses:52 steiners:19
pn:0 obtuses:52 steiners:20
pn:0 obtuses:52 steiners:21
pn:0 obtuses:52 steiners:22
pn:0 obtuses:52 steiners:23
pn:0 obtuses:52 steiners:24
pn:0 obtuses:52 steiners:25
pn:0 obtuses:52 steiners:26
pn:-0.514518 obtuses:51 steiners:27
pn:0 obtuses:51 steiners:28
pn:0 obtuses:51 steiners:29
pn:0.572779 obtuses:52 steiners:30
pn:0.580918 obtuses:53 steiners:31
pn:0 obtuses:53 steiners:32
pn:0 obtuses:53 steiners:33
pn:0 obtuses:53 steiners:34
pn:0 obtuses:53 steiners:35
pn:0 obtuses:53 steiners:36
pn:-0.695216 obtuses:52 steiners:37
pn:0.714265 obtuses:53 steiners:38
pn:0 obtuses:53 steiners:39
pn:0 obtuses:53 steiners:40
pn:0 obtuses:53 steiners:41
pn:0 obtuses:53 steiners:42
pn:0 obtuses:53 steiners:43
pn:0 obtuses:53 steiners:44
pn:0 obtuses:53 steiners:45
pn:-0.866658 obtuses:52 steiners:46
pn:0 obtuses:52 steiners:47
pn:-0.922325 obtuses:51 steiners:48
pn:0 obtuses:51 steiners:49
pn:0 obtuses:51 steiners:50
pn:0 obtuses:51 steiners:51
pn:0 obtuses:51 steiners:52
pn:-1.03961 obtuses:50 steiners:53
pn:0 obtuses:50 steiners:54
pn:0 obtuses:50 steiners:55
pn:0 obtuses:50 steiners:56
pn:0 obtuses:50 steiners:57
pn:-1.16163 obtuses:49 steiners:58
pn:1.18183 obtuses:50 steiners:59
pn:0 obtuses:50 steiners:60
pn:0 obtuses:50 steiners:61
pn:0 obtuses:50 steiners:62
pn:0 obtuses:50 steiners:63
pn:0 obtuses:50 steiners:64
pn:0 obtuses:50 steiners:65
Warning: The Steiner point is too close to an existing point and will not be inserted.
pn:0 obtuses:50 steiners:66
Warning: The Steiner point is too close to an existing point and will not be inserted.
pn:0 obtuses:50 steiners:67
pn:0 obtuses:50 steiners:68
pn:1.35646 obtuses:51 steiners:69
pn:1.34953 obtuses:52 steiners:70
pn:0 obtuses:52 steiners:71
pn:2.69839 obtuses:54 steiners:72
pn:0 obtuses:54 steiners:73
pn:0 obtuses:54 steiners:74
pn:0 obtuses:54 steiners:75
pn:0 obtuses:54 steiners:76
pn:0 obtuses:54 steiners:77
pn:0 obtuses:54 steiners:78
pn:-1.46731 obtuses:53 steiners:79
pn:0 obtuses:53 steiners:80
Warning: The Steiner point is too close to an existing point and will not be inserted.
pn:-1.53336 obtuses:52 steiners:81
pn:0 obtuses:52 steiners:82
pn:0 obtuses:52 steiners:83
pn:0 obtuses:52 steiners:84
pn:0 obtuses:52 steiners:85
pn:0 obtuses:52 steiners:86
pn:0 obtuses:52 steiners:87
pn:0 obtuses:52 steiners:88
pn:0 obtuses:52 steiners:89
Warning: The Steiner point is too close to an existing point and will not be inserted.
pn:1.7048 obtuses:53 steiners:90
pn:0 obtuses:53 steiners:91
Warning: The Steiner point is too close to an existing point and will not be inserted.
pn:1.71031 obtuses:54 steiners:92
pn:3.36397 obtuses:56 steiners:93
pn:0 obtuses:56 steiners:94
Warning: The Steiner point is too close to an existing point and will not be inserted.
pn:0 obtuses:56 steiners:95
Warning: The Steiner point is too close to an existing point and will not be inserted.
pn:1.69029 obtuses:57 steiners:96
pn:0 obtuses:57 steiners:97
pn:-1.72569 obtuses:56 steiners:98
pn:0 obtuses:56 steiners:99
pn:0 obtuses:56 steiners:100
Warning: The Steiner point is too close to an existing point and will not be inserted.
pn:0 obtuses:56 steiners:101
pn:0 obtuses:56 steiners:102
Warning: The Steiner point is too close to an existing point and will not be inserted.
pn:0 obtuses:56 steiners:103
pn:0 obtuses:56 steiners:104
pn:-1.88292 obtuses:55 steiners:105
pn:0 obtuses:55 steiners:106
pn:0 obtuses:55 steiners:107
pn:0 obtuses:55 steiners:108
pn:1.95499 obtuses:56 steiners:109
pn:0 obtuses:56 steiners:110
pn:0 obtuses:56 steiners:111
pn:0 obtuses:56 steiners:112
pn:0 obtuses:56 steiners:113
pn:0 obtuses:56 steiners:114
pn:0 obtuses:56 steiners:115
pn:0 obtuses:56 steiners:116
pn:2.06199 obtuses:57 steiners:117
pn:-2.07969 obtuses:56 steiners:118
pn:0 obtuses:56 steiners:119
pn:0 obtuses:56 steiners:120
pn:2.13279 obtuses:57 steiners:121
pn:0 obtuses:57 steiners:122
pn:0 obtuses:57 steiners:123
pn:0 obtuses:57 steiners:124
pn:0 obtuses:57 steiners:125
pn:-2.22129 obtuses:56 steiners:126
pn:0 obtuses:56 steiners:127
pn:0 obtuses:56 steiners:128
pn:-2.31537 obtuses:55 steiners:129
pn:2.33338 obtuses:56 steiners:130
Warning: The Steiner point is too close to an existing point and will not be inserted.
pn:0 obtuses:56 steiners:131
pn:0 obtuses:56 steiners:132
Warning: The Steiner point is too close to an existing point and will not be inserted.
pn:-2.38744 obtuses:55 steiners:133
pn:2.40546 obtuses:56 steiners:134
pn:0 obtuses:56 steiners:135
pn:0 obtuses:56 steiners:136
pn:0 obtuses:56 steiners:137
pn:2.43368 obtuses:57 steiners:138
pn:0 obtuses:57 steiners:139
pn:4.8108 obtuses:59 steiners:140
pn:-2.40176 obtuses:58 steiners:141
pn:-2.46092 obtuses:57 steiners:142
pn:0 obtuses:57 steiners:143
pn:0 obtuses:57 steiners:144
pn:0 obtuses:57 steiners:145
pn:0 obtuses:57 steiners:146
pn:0 obtuses:57 steiners:147
pn:-2.61068 obtuses:56 steiners:148
pn:0 obtuses:56 steiners:149
pn:0 obtuses:56 steiners:150
pn:0 obtuses:56 steiners:151
Warning: The Steiner point is too close to an existing point and will not be inserted.
pn:0 obtuses:56 steiners:152
pn:0 obtuses:56 steiners:153
pn:2.71688 obtuses:57 steiners:154
pn:0 obtuses:57 steiners:155
pn:0 obtuses:57 steiners:156
pn:0 obtuses:57 steiners:157
pn:0 obtuses:57 steiners:158
pn:0 obtuses:57 steiners:159
pn:0 obtuses:57 steiners:160
pn:0 obtuses:57 steiners:161
pn:0 obtuses:57 steiners:162
pn:0 obtuses:57 steiners:163
pn:5.63847 obtuses:59 steiners:164
pn:0 obtuses:59 steiners:165
pn:5.51716 obtuses:61 steiners:166
pn:0 obtuses:61 steiners:167
pn:0 obtuses:61 steiners:168
pn:5.43594 obtuses:63 steiners:169
Warning: The Steiner point is too close to an existing point and will not be inserted.
pn:-2.71205 obtuses:62 steiners:170
pn:0 obtuses:62 steiners:171
pn:0 obtuses:62 steiners:172
Warning: The Steiner point is too close to an existing point and will not be inserted.
pn:0 obtuses:62 steiners:173
Warning: The Steiner point is too close to an existing point and will not be inserted.
pn:0 obtuses:62 steiners:174
pn:2.79205 obtuses:63 steiners:175
pn:0 obtuses:63 steiners:176
pn:0 obtuses:63 steiners:177
pn:0 obtuses:63 steiners:178
pn:0 obtuses:63 steiners:179
pn:0 obtuses:63 steiners:180
pn:0 obtuses:63 steiners:181
pn:0 obtuses:63 steiners:182
pn:-2.92005 obtuses:62 steiners:183
pn:0 obtuses:62 steiners:184
pn:0 obtuses:62 steiners:185
pn:0 obtuses:62 steiners:186
pn:0 obtuses:62 steiners:187
Warning: The Steiner point is too close to an existing point and will not be inserted.
pn:0 obtuses:62 steiners:188
pn:0 obtuses:62 steiners:189
pn:0 obtuses:62 steiners:190
pn:0 obtuses:62 steiners:191
pn:0 obtuses:62 steiners:192
pn:0 obtuses:62 steiners:193
pn:0 obtuses:62 steiners:194
pn:0 obtuses:62 steiners:195
pn:0 obtuses:62 steiners:196
pn:6.23861 obtuses:64 steiners:197
pn:0 obtuses:64 steiners:198
pn:0 obtuses:64 steiners:199
Randomization pn: 0
Ενέργεια τριγωνοποίσης που δεν συγκλίνει: 351.2
Method: Ant Colony: 
	Original CDT had: 54/145 obtuse faces
	We inserted 199 steiner points:
		Middle of largest edge: 22
		Circumcenter: 10
		Projection: 167
		Polygon Cnetroid: 0
Final obtuse faces: 64/523
Αρχικές αμβλείες: 54
Τελικές αμβλείες: 64

Αρχικά faces: 145
Τελικές faces: 523

Αρχική ενέργεια: 162
Τελική ενέργεια: 351.2

-18.5185% αύξηση αμβλείων
