Input file: .vscode/temp_2_ant.json
Output file: .vscode/output_2_ant.json
ortho_60_5c5796a0
60

POINTS_X
0 ,242782 ,242782 ,839998 ,839998 ,1000000 ,1000000 ,999971 ,999971 ,874332 ,874332 ,810612 ,810612 ,749661 ,749661 ,742663 ,742663 ,684290 ,684290 ,655396 ,655396 ,593539 ,593539 ,613304 ,613304 ,593539 ,593539 ,580701 ,580701 ,285253 ,285253 ,0 ,0 ,807519 ,807519 ,368539 ,368539 ,424598 ,424598 ,486511 ,486511 ,807519 ,807519 ,640628 ,640628 ,484869 ,484869 ,640628 ,640628 ,407157 ,407157 ,356717 ,356717 ,342558 ,342558 ,0 ,0 ,204497 ,204497 ,0 ,
POINTS_Y
0 ,0 ,-635728 ,-635728 ,0 ,0 ,1000000 ,1000000 ,887535 ,887535 ,1195962 ,1195962 ,887535 ,887535 ,1018475 ,1018475 ,1099919 ,1099919 ,1018475 ,1018475 ,887535 ,887535 ,943818 ,943818 ,999775 ,999775 ,1000000 ,1000000 ,837759 ,837759 ,1000000 ,1000000 ,822856 ,822856 ,487423 ,487423 ,272259 ,272259 ,62833 ,62833 ,272259 ,272259 ,249290 ,249290 ,-47267 ,-47267 ,-353142 ,-353142 ,-408952 ,-408952 ,-506509 ,-506509 ,-408952 ,-408952 ,249290 ,249290 ,133391 ,133391 ,102984 ,102984 ,
REGION_BOUND
0 ,1 ,2 ,3 ,4 ,5 ,6 ,7 ,8 ,9 ,10 ,11 ,12 ,13 ,14 ,15 ,16 ,17 ,18 ,19 ,20 ,21 ,22 ,23 ,24 ,25 ,26 ,27 ,28 ,29 ,30 ,31 ,32 ,33 ,34 ,35 ,36 ,37 ,38 ,39 ,40 ,41 ,42 ,43 ,44 ,45 ,46 ,47 ,48 ,49 ,50 ,51 ,52 ,53 ,54 ,55 ,56 ,57 ,58 ,59 ,
NUM CONSTRAINTS
0

ADDITIONAL CONSTRAINTS

METHOD: ant

PARAMETERS:
L: 200, alpha: 3, beta: 0.8, kappa: 8, lambda: 0.5, psi: 3, xi: 1, 
DELAUNAY: true
Δ. Μη κυρτό boundary με ευθύγραμμα τμήματα παράλληλα στους άξονες χωρίςm περιορισμούς.
pn:0 obtuses:55 steiners:3
pn:0 obtuses:55 steiners:4
pn:0 obtuses:55 steiners:5
pn:0 obtuses:55 steiners:6
pn:-0.119034 obtuses:54 steiners:7
pn:0 obtuses:54 steiners:8
pn:0 obtuses:54 steiners:9
pn:0 obtuses:54 steiners:10
pn:0 obtuses:54 steiners:11
pn:0 obtuses:54 steiners:12
pn:0 obtuses:54 steiners:13
pn:0 obtuses:54 steiners:14
pn:0 obtuses:54 steiners:15
pn:0 obtuses:54 steiners:16
pn:0 obtuses:54 steiners:17
pn:0 obtuses:54 steiners:18
pn:0 obtuses:54 steiners:19
pn:0 obtuses:54 steiners:20
pn:0 obtuses:54 steiners:21
pn:0 obtuses:54 steiners:22
pn:0 obtuses:54 steiners:23
pn:0 obtuses:54 steiners:24
pn:0 obtuses:54 steiners:25
pn:0 obtuses:54 steiners:26
pn:0 obtuses:54 steiners:27
pn:0 obtuses:54 steiners:28
pn:0 obtuses:54 steiners:29
pn:0 obtuses:54 steiners:30
pn:0 obtuses:54 steiners:31
pn:0 obtuses:54 steiners:32
pn:0 obtuses:54 steiners:33
pn:0 obtuses:54 steiners:34
pn:0 obtuses:54 steiners:35
pn:0 obtuses:54 steiners:36
pn:0 obtuses:54 steiners:37
pn:0 obtuses:54 steiners:38
pn:0 obtuses:54 steiners:39
pn:0 obtuses:54 steiners:40
pn:0 obtuses:54 steiners:41
pn:0 obtuses:54 steiners:42
pn:0 obtuses:54 steiners:43
pn:0 obtuses:54 steiners:44
pn:0 obtuses:54 steiners:45
pn:0 obtuses:54 steiners:46
pn:0 obtuses:54 steiners:47
pn:0 obtuses:54 steiners:48
pn:0 obtuses:54 steiners:49
pn:0 obtuses:54 steiners:50
pn:0 obtuses:54 steiners:51
pn:0 obtuses:54 steiners:52
pn:0 obtuses:54 steiners:53
pn:0 obtuses:54 steiners:54
pn:0 obtuses:54 steiners:55
pn:-1.03739 obtuses:53 steiners:56
pn:6.05921 obtuses:59 steiners:57
pn:0 obtuses:59 steiners:58
pn:0 obtuses:59 steiners:59
pn:0 obtuses:59 steiners:60
pn:0 obtuses:59 steiners:61
pn:0 obtuses:59 steiners:62
pn:0 obtuses:59 steiners:63
Warning: The Steiner point is too close to an existing point and will not be inserted.
pn:0 obtuses:59 steiners:64
pn:0 obtuses:59 steiners:65
pn:0 obtuses:59 steiners:66
pn:0 obtuses:59 steiners:67
pn:0 obtuses:59 steiners:68
pn:0 obtuses:59 steiners:69
pn:0 obtuses:59 steiners:70
pn:0 obtuses:59 steiners:71
pn:0 obtuses:59 steiners:72
pn:0 obtuses:59 steiners:73
pn:0 obtuses:59 steiners:74
pn:0 obtuses:59 steiners:75
pn:0 obtuses:59 steiners:76
pn:0 obtuses:59 steiners:77
pn:0 obtuses:59 steiners:78
pn:0 obtuses:59 steiners:79
pn:0 obtuses:59 steiners:80
pn:0 obtuses:59 steiners:81
pn:0 obtuses:59 steiners:82
pn:0 obtuses:59 steiners:83
pn:0 obtuses:59 steiners:84
pn:0 obtuses:59 steiners:85
pn:0 obtuses:59 steiners:86
pn:0 obtuses:59 steiners:87
pn:0 obtuses:59 steiners:88
pn:0 obtuses:59 steiners:89
Warning: The Steiner point is too close to an existing point and will not be inserted.
pn:0 obtuses:59 steiners:90
pn:0 obtuses:59 steiners:91
pn:-1.56413 obtuses:58 steiners:92
pn:0 obtuses:58 steiners:93
pn:0 obtuses:58 steiners:94
pn:0 obtuses:58 steiners:95
pn:0 obtuses:58 steiners:96
pn:0 obtuses:58 steiners:97
pn:0 obtuses:58 steiners:98
pn:0 obtuses:58 steiners:99
pn:0 obtuses:58 steiners:100
pn:0 obtuses:58 steiners:101
pn:0 obtuses:58 steiners:102
pn:0 obtuses:58 steiners:103
pn:0 obtuses:58 steiners:104
pn:0 obtuses:58 steiners:105
pn:0 obtuses:58 steiners:106
pn:0 obtuses:58 steiners:107
pn:0 obtuses:58 steiners:108
Warning: The Steiner point is too close to an existing point and will not be inserted.
pn:0 obtuses:58 steiners:109
pn:0 obtuses:58 steiners:110
pn:0 obtuses:58 steiners:111
Warning: The Steiner point is too close to an existing point and will not be inserted.
pn:0 obtuses:58 steiners:112
pn:0 obtuses:58 steiners:113
pn:0 obtuses:58 steiners:114
pn:0 obtuses:58 steiners:115
pn:0 obtuses:58 steiners:116
pn:0 obtuses:58 steiners:117
pn:0 obtuses:58 steiners:118
pn:0 obtuses:58 steiners:119
pn:0 obtuses:58 steiners:120
pn:0 obtuses:58 steiners:121
pn:0 obtuses:58 steiners:122
pn:0 obtuses:58 steiners:123
pn:0 obtuses:58 steiners:124
pn:0 obtuses:58 steiners:125
pn:0 obtuses:58 steiners:126
pn:0 obtuses:58 steiners:127
pn:0 obtuses:58 steiners:128
pn:0 obtuses:58 steiners:129
pn:0 obtuses:58 steiners:130
pn:0 obtuses:58 steiners:131
pn:0 obtuses:58 steiners:132
pn:0 obtuses:58 steiners:133
pn:0 obtuses:58 steiners:134
pn:0 obtuses:58 steiners:135
pn:0 obtuses:58 steiners:136

Ο αλγόριθμος δεν συγκλίνει: Εκτελούμε τυχαιοποίηση
pn:0 obtuses:58 steiners:137
pn:0 obtuses:58 steiners:138
pn:0 obtuses:58 steiners:139
pn:0 obtuses:58 steiners:140
pn:0 obtuses:58 steiners:141
pn:0 obtuses:58 steiners:142
pn:0 obtuses:58 steiners:143
pn:0 obtuses:58 steiners:144
pn:0 obtuses:58 steiners:145
pn:0 obtuses:58 steiners:146
pn:0 obtuses:58 steiners:147
pn:0 obtuses:58 steiners:148
pn:0 obtuses:58 steiners:149
pn:0 obtuses:58 steiners:150
pn:0 obtuses:58 steiners:151
pn:0 obtuses:58 steiners:152
pn:0 obtuses:58 steiners:153
pn:0 obtuses:58 steiners:154
pn:0 obtuses:58 steiners:155
pn:0 obtuses:58 steiners:156

Η μέθοδος της τυχαιοποίησης δεν συγκλίνει. Σταματάει η διαδικασία
Randomization pn: 0
Ενέργεια τριγωνοποίσης που δεν συγκλίνει: 298.8
Method: Ant Colony: 
	Original CDT had: 55/106 obtuse faces
	We inserted 156 steiner points:
		Middle of largest edge: 0
		Circumcenter: 0
		Projection: 136
		Polygon Cnetroid: 0
Final obtuse faces: 58/379
Αρχικές αμβλείες: 55
Τελικές αμβλείες: 58

Αρχικά faces: 106
Τελικές faces: 379

Αρχική ενέργεια: 165
Τελική ενέργεια: 282.8

-5.45455% αύξηση αμβλείων
