Input file: .vscode/temp_2_ant.json
Output file: .vscode/output_2_ant.json
point-set_20_0c4009d9
20

POINTS_X
3925 ,9825 ,10375 ,9975 ,9875 ,3525 ,3625 ,4025 ,4025 ,10175 ,3625 ,3725 ,3725 ,9875 ,9675 ,3675 ,4225 ,10275 ,10175 ,9975 ,
POINTS_Y
5350 ,8050 ,5650 ,5150 ,5850 ,8300 ,3650 ,5850 ,3850 ,3350 ,4850 ,4350 ,5650 ,4850 ,4850 ,8050 ,5650 ,3850 ,8300 ,6150 ,
REGION_BOUND
5 ,6 ,9 ,17 ,2 ,18 ,
NUM CONSTRAINTS
0

ADDITIONAL CONSTRAINTS

METHOD: ant

PARAMETERS:
L: 200, alpha: 3, beta: 0.8, kappa: 8, lambda: 0.5, psi: 3, xi: 1, 
DELAUNAY: true
Α. ΚΥΡΤΟ ΠΕΡΙΒΛΗΜΑ ΧΩΡΙΣ ΠΕΡΙΟΡΙΣΜΟΥΣ
pn:-0.0930791 obtuses:26 steiners:3
pn:0 obtuses:26 steiners:4
pn:0 obtuses:26 steiners:5
pn:0 obtuses:26 steiners:6
pn:0 obtuses:26 steiners:7
pn:-0.293719 obtuses:25 steiners:8
pn:0 obtuses:25 steiners:9
pn:-0.387451 obtuses:24 steiners:10
pn:0 obtuses:24 steiners:11
pn:0 obtuses:24 steiners:12
pn:-0.531711 obtuses:23 steiners:13
pn:0.574292 obtuses:24 steiners:14
pn:0 obtuses:24 steiners:15
pn:0 obtuses:24 steiners:16
pn:0 obtuses:24 steiners:17
Warning: The Steiner point is too close to an existing point and will not be inserted.
pn:0 obtuses:24 steiners:18
Warning: The Steiner point is too close to an existing point and will not be inserted.
pn:2.85109 obtuses:28 steiners:19
Warning: The Steiner point is too close to an existing point and will not be inserted.
pn:0.684131 obtuses:29 steiners:20
Warning: The Steiner point is too close to an existing point and will not be inserted.
Warning: The Steiner point is too close to an existing point and will not be inserted.
Warning: The Steiner point is too close to an existing point and will not be inserted.
pn:0 obtuses:29 steiners:21
Warning: The Steiner point is too close to an existing point and will not be inserted.
pn:-0.754327 obtuses:28 steiners:22
Warning: The Steiner point is too close to an existing point and will not be inserted.
Warning: The Steiner point is too close to an existing point and will not be inserted.
pn:-0.818137 obtuses:27 steiners:23
Warning: The Steiner point is too close to an existing point and will not be inserted.
Warning: The Steiner point is too close to an existing point and will not be inserted.
pn:0 obtuses:27 steiners:24
Warning: The Steiner point is too close to an existing point and will not be inserted.
Warning: The Steiner point is too close to an existing point and will not be inserted.
pn:1.7505 obtuses:29 steiners:25
Warning: The Steiner point is too close to an existing point and will not be inserted.
pn:-0.894714 obtuses:28 steiners:26
pn:0 obtuses:28 steiners:27
pn:0 obtuses:28 steiners:28
pn:2.90051 obtuses:31 steiners:29
pn:0 obtuses:31 steiners:30
pn:0 obtuses:31 steiners:31
pn:0 obtuses:31 steiners:32
pn:0 obtuses:31 steiners:33
pn:0 obtuses:31 steiners:34
pn:0 obtuses:31 steiners:35
pn:-1.16396 obtuses:30 steiners:36
pn:-1.23733 obtuses:29 steiners:37
pn:0 obtuses:29 steiners:38
pn:0 obtuses:29 steiners:39
pn:0 obtuses:29 steiners:40
Warning: The Steiner point is too close to an existing point and will not be inserted.
pn:0 obtuses:29 steiners:41
pn:0 obtuses:29 steiners:42
pn:0 obtuses:29 steiners:43
pn:0 obtuses:29 steiners:44
pn:1.50856 obtuses:30 steiners:45
pn:0 obtuses:30 steiners:46
pn:0 obtuses:30 steiners:47
pn:0 obtuses:30 steiners:48
pn:0 obtuses:30 steiners:49
pn:0 obtuses:30 steiners:50
pn:0 obtuses:30 steiners:51
pn:0 obtuses:30 steiners:52
pn:3.38817 obtuses:32 steiners:53
Warning: The Steiner point is too close to an existing point and will not be inserted.
pn:3.24332 obtuses:34 steiners:54
pn:0 obtuses:34 steiners:55
pn:0 obtuses:34 steiners:56
pn:-1.68665 obtuses:33 steiners:57
pn:0 obtuses:33 steiners:58
pn:0 obtuses:33 steiners:59
pn:0 obtuses:33 steiners:60
Warning: The Steiner point is too close to an existing point and will not be inserted.
pn:3.55977 obtuses:35 steiners:61
pn:0 obtuses:35 steiners:62
pn:0 obtuses:35 steiners:63
pn:0 obtuses:35 steiners:64
pn:0 obtuses:35 steiners:65
pn:0 obtuses:35 steiners:66
pn:3.69533 obtuses:37 steiners:67
pn:0 obtuses:37 steiners:68
pn:0 obtuses:37 steiners:69
pn:0 obtuses:37 steiners:70
pn:5.4962 obtuses:40 steiners:71
pn:0 obtuses:40 steiners:72
pn:0 obtuses:40 steiners:73
pn:3.58602 obtuses:42 steiners:74
pn:0 obtuses:42 steiners:75
pn:0 obtuses:42 steiners:76
pn:0 obtuses:42 steiners:77
pn:0 obtuses:42 steiners:78
pn:0 obtuses:42 steiners:79
Warning: The Steiner point is too close to an existing point and will not be inserted.
pn:0 obtuses:42 steiners:80
pn:0 obtuses:42 steiners:81
Warning: The Steiner point is too close to an existing point and will not be inserted.
pn:0 obtuses:42 steiners:82
pn:0 obtuses:42 steiners:83
Warning: The Steiner point is too close to an existing point and will not be inserted.
pn:0 obtuses:42 steiners:84
pn:0 obtuses:42 steiners:85
Warning: The Steiner point is too close to an existing point and will not be inserted.
pn:0 obtuses:42 steiners:86
pn:-2.08441 obtuses:41 steiners:87
pn:0 obtuses:41 steiners:88
pn:-2.18527 obtuses:40 steiners:89
Warning: The Steiner point is too close to an existing point and will not be inserted.
pn:0 obtuses:40 steiners:90
pn:0 obtuses:40 steiners:91
pn:0 obtuses:40 steiners:92
Warning: The Steiner point is too close to an existing point and will not be inserted.
Warning: The Steiner point is too close to an existing point and will not be inserted.
pn:0 obtuses:40 steiners:93
pn:0 obtuses:40 steiners:94
pn:2.33343 obtuses:41 steiners:95
pn:0 obtuses:41 steiners:96
pn:0 obtuses:41 steiners:97
pn:0 obtuses:41 steiners:98
Warning: The Steiner point is too close to an existing point and will not be inserted.
pn:0 obtuses:41 steiners:99
Warning: The Steiner point is too close to an existing point and will not be inserted.
pn:0 obtuses:41 steiners:100
Warning: The Steiner point is too close to an existing point and will not be inserted.
pn:-2.48159 obtuses:40 steiners:101
pn:0 obtuses:40 steiners:102
pn:0 obtuses:40 steiners:103
pn:0 obtuses:40 steiners:104
pn:0 obtuses:40 steiners:105
pn:0 obtuses:40 steiners:106
pn:0 obtuses:40 steiners:107
pn:0 obtuses:40 steiners:108
pn:2.67913 obtuses:41 steiners:109
pn:0 obtuses:41 steiners:110
Warning: The Steiner point is too close to an existing point and will not be inserted.
pn:0 obtuses:41 steiners:111
pn:0 obtuses:41 steiners:112
pn:0 obtuses:41 steiners:113
pn:5.40575 obtuses:43 steiners:114
pn:0 obtuses:43 steiners:115
pn:5.25087 obtuses:45 steiners:116
pn:0 obtuses:45 steiners:117
pn:0 obtuses:45 steiners:118
pn:0 obtuses:45 steiners:119
pn:0 obtuses:45 steiners:120
pn:0 obtuses:45 steiners:121
pn:0 obtuses:45 steiners:122
pn:0 obtuses:45 steiners:123
pn:0 obtuses:45 steiners:124
Warning: The Steiner point is too close to an existing point and will not be inserted.
pn:5.41387 obtuses:47 steiners:125
pn:0 obtuses:47 steiners:126
pn:0 obtuses:47 steiners:127
pn:0 obtuses:47 steiners:128
pn:0 obtuses:47 steiners:129
pn:0 obtuses:47 steiners:130
pn:0 obtuses:47 steiners:131
Warning: The Steiner point is too close to an existing point and will not be inserted.
pn:0 obtuses:47 steiners:132
Warning: The Steiner point is too close to an existing point and will not be inserted.
pn:0 obtuses:47 steiners:133
pn:0 obtuses:47 steiners:134
pn:0 obtuses:47 steiners:135
pn:0 obtuses:47 steiners:136
pn:0 obtuses:47 steiners:137
pn:-2.95709 obtuses:46 steiners:138
pn:0 obtuses:46 steiners:139
pn:0 obtuses:46 steiners:140
pn:0 obtuses:46 steiners:141
Warning: The Steiner point is too close to an existing point and will not be inserted.
pn:6.02216 obtuses:48 steiners:142
pn:5.81711 obtuses:50 steiners:143
Warning: The Steiner point is too close to an existing point and will not be inserted.
pn:0 obtuses:50 steiners:144
pn:0 obtuses:50 steiners:145
pn:0 obtuses:50 steiners:146
pn:-2.95969 obtuses:49 steiners:147
pn:0 obtuses:49 steiners:148
pn:0 obtuses:49 steiners:149
pn:-3.08257 obtuses:48 steiners:150
pn:0 obtuses:48 steiners:151
pn:0 obtuses:48 steiners:152
pn:0 obtuses:48 steiners:153
pn:0 obtuses:48 steiners:154
pn:0 obtuses:48 steiners:155
pn:0 obtuses:48 steiners:156
pn:-3.29485 obtuses:47 steiners:157
Warning: The Steiner point is too close to an existing point and will not be inserted.
pn:0 obtuses:47 steiners:158
pn:0 obtuses:47 steiners:159
pn:0 obtuses:47 steiners:160
pn:0 obtuses:47 steiners:161
pn:0 obtuses:47 steiners:162
pn:0 obtuses:47 steiners:163
pn:0 obtuses:47 steiners:164
pn:0 obtuses:47 steiners:165
pn:0 obtuses:47 steiners:166
pn:0 obtuses:47 steiners:167
pn:10.3641 obtuses:50 steiners:168
pn:0 obtuses:50 steiners:169
pn:6.64789 obtuses:52 steiners:170
Warning: The Steiner point is too close to an existing point and will not be inserted.
pn:0 obtuses:52 steiners:171
pn:0 obtuses:52 steiners:172
Randomization pn: 0
Ενέργεια τριγωνοποίσης που δεν συγκλίνει: 293.6
Method: Ant Colony: 
	Original CDT had: 26/32 obtuse faces
	We inserted 172 steiner points:
		Middle of largest edge: 7
		Circumcenter: 16
		Projection: 149
		Polygon Cnetroid: 0
Final obtuse faces: 52/365
Αρχικές αμβλείες: 26
Τελικές αμβλείες: 52

Αρχικά faces: 32
Τελικές faces: 365

Αρχική ενέργεια: 78
Τελική ενέργεια: 293.6

-100% αύξηση αμβλείων
