Input file: .vscode/temp_1_ant.json
Output file: .vscode/output_1_ant.json
simple-polygon-exterior-20_250_eb5ab92f
250

POINTS_X
9 ,8 ,0 ,0 ,17 ,10 ,-19 ,-17 ,-28 ,-38 ,-25 ,-30 ,-44 ,-40 ,-46 ,-46 ,-57 ,-72 ,-73 ,-80 ,-99 ,-93 ,-86 ,-90 ,-88 ,-96 ,-94 ,-94 ,-84 ,-83 ,-61 ,-60 ,-63 ,-69 ,-70 ,-77 ,-82 ,-82 ,-75 ,-70 ,-65 ,-62 ,-47 ,-45 ,-44 ,-46 ,-42 ,-47 ,-43 ,-54 ,-56 ,-63 ,-50 ,-39 ,-30 ,-30 ,-38 ,-35 ,-25 ,-18 ,-5 ,-2 ,5 ,17 ,26 ,39 ,49 ,51 ,50 ,54 ,58 ,64 ,69 ,70 ,70 ,75 ,85 ,86 ,85 ,82 ,79 ,66 ,64 ,64 ,52 ,49 ,40 ,43 ,42 ,38 ,36 ,41 ,40 ,33 ,25 ,23 ,20 ,24 ,29 ,29 ,26 ,17 ,31 ,38 ,35 ,62 ,63 ,42 ,38 ,17 ,8 ,1 ,-3 ,-4 ,6 ,7 ,0 ,-3 ,-4 ,-12 ,-20 ,-36 ,-24 ,-16 ,-18 ,-16 ,-13 ,-12 ,-14 ,-17 ,-20 ,-26 ,-28 ,-33 ,-37 ,-43 ,-55 ,-70 ,-61 ,-60 ,-69 ,-92 ,-97 ,-97 ,-88 ,-87 ,-83 ,-80 ,-78 ,-76 ,-59 ,-39 ,-42 ,-50 ,-53 ,-61 ,-66 ,-58 ,-61 ,-64 ,-67 ,-84 ,-96 ,-83 ,-77 ,-70 ,-67 ,-53 ,-29 ,-28 ,-19 ,-12 ,-21 ,-22 ,-18 ,-16 ,-11 ,-5 ,-7 ,-1 ,1 ,2 ,7 ,12 ,7 ,3 ,7 ,0 ,-3 ,0 ,5 ,6 ,14 ,15 ,19 ,25 ,28 ,31 ,40 ,51 ,52 ,59 ,60 ,69 ,70 ,55 ,42 ,57 ,70 ,77 ,99 ,93 ,92 ,91 ,92 ,91 ,95 ,98 ,92 ,93 ,83 ,76 ,75 ,68 ,63 ,60 ,54 ,59 ,66 ,69 ,77 ,93 ,79 ,71 ,74 ,82 ,96 ,82 ,83 ,81 ,78 ,53 ,54 ,53 ,51 ,49 ,32 ,40 ,37 ,16 ,
POINTS_Y
-79 ,-84 ,-78 ,-75 ,-72 ,-49 ,-62 ,-66 ,-71 ,-81 ,-89 ,-94 ,-95 ,-84 ,-82 ,-79 ,-84 ,-87 ,-96 ,-95 ,-97 ,-86 ,-79 ,-68 ,-61 ,-36 ,-30 ,-20 ,-29 ,-30 ,-26 ,-20 ,-14 ,-19 ,-19 ,-16 ,-14 ,-3 ,0 ,6 ,0 ,-2 ,12 ,7 ,7 ,-3 ,-6 ,-26 ,-30 ,-50 ,-62 ,-75 ,-60 ,-67 ,-68 ,-63 ,-56 ,-54 ,-54 ,-39 ,-39 ,-47 ,-41 ,-35 ,-37 ,-49 ,-47 ,-45 ,-37 ,-21 ,-19 ,-17 ,-19 ,-14 ,0 ,0 ,11 ,35 ,36 ,35 ,38 ,39 ,37 ,20 ,12 ,8 ,27 ,33 ,33 ,39 ,41 ,42 ,61 ,57 ,58 ,52 ,42 ,41 ,41 ,33 ,22 ,21 ,12 ,8 ,-1 ,-8 ,-14 ,-15 ,-24 ,-25 ,-22 ,-17 ,-20 ,-7 ,-6 ,-4 ,14 ,17 ,17 ,10 ,-5 ,4 ,4 ,16 ,34 ,36 ,38 ,42 ,44 ,49 ,51 ,43 ,39 ,33 ,46 ,47 ,39 ,39 ,26 ,20 ,19 ,12 ,9 ,35 ,36 ,51 ,49 ,55 ,53 ,55 ,50 ,61 ,63 ,60 ,62 ,56 ,63 ,64 ,66 ,70 ,72 ,74 ,85 ,84 ,80 ,85 ,88 ,88 ,72 ,73 ,87 ,85 ,77 ,73 ,64 ,62 ,60 ,54 ,52 ,49 ,34 ,29 ,31 ,48 ,59 ,66 ,73 ,75 ,97 ,95 ,97 ,94 ,89 ,98 ,93 ,91 ,93 ,85 ,80 ,70 ,66 ,71 ,58 ,59 ,80 ,89 ,96 ,95 ,99 ,79 ,81 ,49 ,40 ,36 ,27 ,15 ,-9 ,-17 ,-17 ,-29 ,-24 ,-22 ,-18 ,-29 ,-41 ,-39 ,-48 ,-49 ,-48 ,-46 ,-43 ,-50 ,-62 ,-61 ,-70 ,-74 ,-83 ,-97 ,-91 ,-86 ,-87 ,-90 ,-82 ,-80 ,-77 ,-71 ,-68 ,-80 ,-90 ,-81 ,
REGION_BOUND
20 ,237 ,236 ,217 ,210 ,208 ,193 ,188 ,162 ,143 ,
NUM CONSTRAINTS
198

ADDITIONAL CONSTRAINTS
[0,1] ,[1,2] ,[3,4] ,[4,5] ,[5,6] ,[6,7] ,[7,8] ,[8,9] ,[9,10] ,[11,12] ,[12,13] ,[13,14] ,[14,15] ,[15,16] ,[16,17] ,[18,19] ,[19,20] ,[20,21] ,[21,22] ,[22,23] ,[23,24] ,[24,25] ,[25,26] ,[26,27] ,[27,28] ,[28,29] ,[29,30] ,[34,35] ,[35,36] ,[37,38] ,[38,39] ,[40,41] ,[41,42] ,[43,44] ,[44,45] ,[46,47] ,[47,48] ,[48,49] ,[49,50] ,[51,52] ,[52,53] ,[53,54] ,[55,56] ,[57,58] ,[58,59] ,[59,60] ,[60,61] ,[61,62] ,[64,65] ,[65,66] ,[67,68] ,[69,70] ,[70,71] ,[73,74] ,[75,76] ,[76,77] ,[78,79] ,[79,80] ,[80,81] ,[81,82] ,[82,83] ,[84,85] ,[86,87] ,[87,88] ,[88,89] ,[89,90] ,[91,92] ,[92,93] ,[93,94] ,[95,96] ,[96,97] ,[97,98] ,[98,99] ,[99,100] ,[100,101] ,[101,102] ,[102,103] ,[103,104] ,[105,106] ,[106,107] ,[107,108] ,[108,109] ,[109,110] ,[111,112] ,[112,113] ,[115,116] ,[116,117] ,[117,118] ,[118,119] ,[119,120] ,[120,121] ,[121,122] ,[122,123] ,[123,124] ,[124,125] ,[125,126] ,[126,127] ,[127,128] ,[128,129] ,[129,130] ,[130,131] ,[131,132] ,[133,134] ,[134,135] ,[135,136] ,[137,138] ,[138,139] ,[139,140] ,[140,141] ,[141,142] ,[142,143] ,[143,144] ,[144,145] ,[145,146] ,[146,147] ,[148,149] ,[149,150] ,[150,151] ,[151,152] ,[154,155] ,[155,156] ,[156,157] ,[158,159] ,[160,161] ,[161,162] ,[162,163] ,[164,165] ,[166,167] ,[167,168] ,[168,169] ,[169,170] ,[170,171] ,[172,173] ,[173,174] ,[174,175] ,[175,176] ,[176,177] ,[177,178] ,[178,179] ,[179,180] ,[180,181] ,[181,182] ,[182,183] ,[183,184] ,[185,186] ,[186,187] ,[187,188] ,[188,189] ,[189,190] ,[190,191] ,[192,193] ,[193,194] ,[194,195] ,[196,197] ,[197,198] ,[198,199] ,[199,200] ,[200,201] ,[201,202] ,[202,203] ,[203,204] ,[204,205] ,[205,206] ,[206,207] ,[207,208] ,[208,209] ,[209,210] ,[210,211] ,[211,212] ,[212,213] ,[213,214] ,[214,215] ,[215,216] ,[216,217] ,[217,218] ,[218,219] ,[220,221] ,[221,222] ,[224,225] ,[225,226] ,[226,227] ,[227,228] ,[228,229] ,[229,230] ,[230,231] ,[231,232] ,[233,234] ,[235,236] ,[237,238] ,[238,239] ,[240,241] ,[242,243] ,[243,244] ,[244,245] ,[245,246] ,[246,247] ,[247,248] ,[249,0] ,
METHOD: ant

PARAMETERS:
L: 200, alpha: 3, beta: 0.8, kappa: 8, lambda: 0.5, psi: 3, xi: 1, 
DELAUNAY: true
Γ. ΚΥΡΤΟ ΠΕΡΙΒΛΗΜΑ (ΚΛΕΙΣΤΟ)
pn:0 obtuses:252 steiners:3
pn:0 obtuses:252 steiners:4
pn:0 obtuses:252 steiners:5
pn:0 obtuses:252 steiners:6
pn:0 obtuses:252 steiners:7
pn:0 obtuses:252 steiners:8
pn:0 obtuses:252 steiners:9
pn:-0.0377385 obtuses:251 steiners:10
pn:0 obtuses:251 steiners:11
pn:0 obtuses:251 steiners:12
pn:0 obtuses:251 steiners:13
Warning: The Steiner point is too close to an existing point and will not be inserted.
pn:0 obtuses:251 steiners:14
pn:0 obtuses:251 steiners:15
pn:0 obtuses:251 steiners:16
pn:-0.0658482 obtuses:250 steiners:17
pn:0 obtuses:250 steiners:18
pn:0 obtuses:250 steiners:19
Warning: The Steiner point is too close to an existing point and will not be inserted.
pn:0 obtuses:250 steiners:20
pn:0 obtuses:250 steiners:21
pn:0 obtuses:250 steiners:22
pn:0 obtuses:250 steiners:23
pn:0 obtuses:250 steiners:24
pn:0 obtuses:250 steiners:25
pn:-0.102191 obtuses:249 steiners:26
pn:0 obtuses:249 steiners:27
pn:0 obtuses:249 steiners:28
pn:0 obtuses:249 steiners:29
pn:0 obtuses:249 steiners:30
pn:0 obtuses:249 steiners:31
pn:-0.12675 obtuses:248 steiners:32
pn:0 obtuses:248 steiners:33
pn:0 obtuses:248 steiners:34
pn:0 obtuses:248 steiners:35
pn:0 obtuses:248 steiners:36
pn:0 obtuses:248 steiners:37
pn:-0.151506 obtuses:247 steiners:38
pn:0 obtuses:247 steiners:39
pn:0 obtuses:247 steiners:40
pn:-0.164292 obtuses:246 steiners:41
pn:0.168349 obtuses:247 steiners:42
Warning: The Steiner point is too close to an existing point and will not be inserted.
pn:-0.172406 obtuses:246 steiners:43
pn:0 obtuses:246 steiners:44
pn:0 obtuses:246 steiners:45
pn:0 obtuses:246 steiners:46
pn:0 obtuses:246 steiners:47
pn:0 obtuses:246 steiners:48
pn:0 obtuses:246 steiners:49
pn:0 obtuses:246 steiners:50
pn:0 obtuses:246 steiners:51
pn:0 obtuses:246 steiners:52
pn:0 obtuses:246 steiners:53
Warning: The Steiner point is too close to an existing point and will not be inserted.
pn:0 obtuses:246 steiners:54
pn:0 obtuses:246 steiners:55
Warning: The Steiner point is too close to an existing point and will not be inserted.
pn:0 obtuses:246 steiners:56
pn:0 obtuses:246 steiners:57
pn:0 obtuses:246 steiners:58
pn:0 obtuses:246 steiners:59
pn:0 obtuses:246 steiners:60
pn:0 obtuses:246 steiners:61
pn:0 obtuses:246 steiners:62
pn:0 obtuses:246 steiners:63
pn:0 obtuses:246 steiners:64
Warning: The Steiner point is too close to an existing point and will not be inserted.
pn:0 obtuses:246 steiners:65
pn:-0.266798 obtuses:245 steiners:66
pn:-0.271979 obtuses:244 steiners:67
pn:-0.277203 obtuses:243 steiners:68
pn:0 obtuses:243 steiners:69
pn:0 obtuses:243 steiners:70
pn:0 obtuses:243 steiners:71
pn:0 obtuses:243 steiners:72
pn:0 obtuses:243 steiners:73
pn:0 obtuses:243 steiners:74
pn:0 obtuses:243 steiners:75
pn:0 obtuses:243 steiners:76
pn:0 obtuses:243 steiners:77
pn:0 obtuses:243 steiners:78
pn:0 obtuses:243 steiners:79
pn:0 obtuses:243 steiners:80
pn:0 obtuses:243 steiners:81
pn:0 obtuses:243 steiners:82
pn:0 obtuses:243 steiners:83
pn:0 obtuses:243 steiners:84
pn:0 obtuses:243 steiners:85
pn:0 obtuses:243 steiners:86
pn:0 obtuses:243 steiners:87
pn:0 obtuses:243 steiners:88
Warning: The Steiner point is too close to an existing point and will not be inserted.
pn:0 obtuses:243 steiners:89
pn:-0.369069 obtuses:242 steiners:90
Warning: The Steiner point is too close to an existing point and will not be inserted.
pn:0 obtuses:242 steiners:91
pn:0 obtuses:242 steiners:92
Warning: The Steiner point is too close to an existing point and will not be inserted.
pn:0 obtuses:242 steiners:93
pn:0 obtuses:242 steiners:94
pn:0 obtuses:242 steiners:95
pn:0 obtuses:242 steiners:96
pn:0 obtuses:242 steiners:97
pn:-0.403724 obtuses:241 steiners:98
pn:0 obtuses:241 steiners:99
pn:0 obtuses:241 steiners:100
pn:0 obtuses:241 steiners:101
pn:0 obtuses:241 steiners:102
pn:0 obtuses:241 steiners:103
pn:0 obtuses:241 steiners:104
pn:0 obtuses:241 steiners:105
pn:0 obtuses:241 steiners:106
pn:0 obtuses:241 steiners:107
pn:0 obtuses:241 steiners:108
pn:0 obtuses:241 steiners:109
pn:0 obtuses:241 steiners:110
pn:0 obtuses:241 steiners:111
pn:0 obtuses:241 steiners:112
pn:0 obtuses:241 steiners:113
pn:0 obtuses:241 steiners:114
pn:0 obtuses:241 steiners:115
pn:0 obtuses:241 steiners:116
pn:0 obtuses:241 steiners:117
pn:0 obtuses:241 steiners:118
pn:0 obtuses:241 steiners:119
pn:0 obtuses:241 steiners:120
pn:0 obtuses:241 steiners:121
pn:0 obtuses:241 steiners:122
pn:0 obtuses:241 steiners:123
pn:0 obtuses:241 steiners:124
pn:0 obtuses:241 steiners:125
pn:0 obtuses:241 steiners:126
pn:0 obtuses:241 steiners:127
pn:0 obtuses:241 steiners:128
pn:0 obtuses:241 steiners:129
pn:0 obtuses:241 steiners:130
pn:0 obtuses:241 steiners:131
pn:0 obtuses:241 steiners:132
Warning: The Steiner point is too close to an existing point and will not be inserted.
pn:0.548652 obtuses:242 steiners:133
pn:0 obtuses:242 steiners:134
Warning: The Steiner point is too close to an existing point and will not be inserted.
pn:0 obtuses:242 steiners:135
pn:0 obtuses:242 steiners:136
pn:0 obtuses:242 steiners:137
pn:0 obtuses:242 steiners:138
pn:0 obtuses:242 steiners:139
pn:0 obtuses:242 steiners:140
pn:0 obtuses:242 steiners:141
pn:0 obtuses:242 steiners:142
pn:0 obtuses:242 steiners:143
pn:0 obtuses:242 steiners:144
pn:0 obtuses:242 steiners:145
pn:-0.602483 obtuses:241 steiners:146
pn:0 obtuses:241 steiners:147
Warning: The Steiner point is too close to an existing point and will not be inserted.
pn:0 obtuses:241 steiners:148
pn:0 obtuses:241 steiners:149
pn:-0.62162 obtuses:240 steiners:150
pn:0 obtuses:240 steiners:151
pn:0 obtuses:240 steiners:152
pn:0 obtuses:240 steiners:153
pn:0 obtuses:240 steiners:154
pn:1.28216 obtuses:242 steiners:155
pn:0 obtuses:242 steiners:156
pn:0 obtuses:242 steiners:157
pn:0 obtuses:242 steiners:158
pn:0 obtuses:242 steiners:159
pn:0 obtuses:242 steiners:160
pn:0 obtuses:242 steiners:161
pn:0 obtuses:242 steiners:162
pn:0 obtuses:242 steiners:163
pn:0 obtuses:242 steiners:164
pn:0 obtuses:242 steiners:165
pn:0 obtuses:242 steiners:166
pn:0 obtuses:242 steiners:167
pn:0 obtuses:242 steiners:168
pn:0 obtuses:242 steiners:169
pn:-0.701862 obtuses:241 steiners:170
pn:0 obtuses:241 steiners:171
pn:0 obtuses:241 steiners:172
pn:0 obtuses:241 steiners:173
pn:0 obtuses:241 steiners:174
pn:0 obtuses:241 steiners:175
pn:0 obtuses:241 steiners:176
pn:0 obtuses:241 steiners:177
pn:0 obtuses:241 steiners:178
pn:0 obtuses:241 steiners:179
pn:0 obtuses:241 steiners:180
pn:0 obtuses:241 steiners:181
pn:0 obtuses:241 steiners:182
pn:0 obtuses:241 steiners:183
pn:0 obtuses:241 steiners:184
pn:0 obtuses:241 steiners:185
pn:0 obtuses:241 steiners:186
pn:-0.775467 obtuses:240 steiners:187
pn:0 obtuses:240 steiners:188
pn:0 obtuses:240 steiners:189
pn:0 obtuses:240 steiners:190
pn:0 obtuses:240 steiners:191
pn:0 obtuses:240 steiners:192
pn:-0.803757 obtuses:239 steiners:193
pn:0 obtuses:239 steiners:194
pn:0 obtuses:239 steiners:195
pn:0 obtuses:239 steiners:196
pn:0 obtuses:239 steiners:197
pn:0 obtuses:239 steiners:198
pn:0 obtuses:239 steiners:199
Randomization pn: 0
Μέσος ρυθμός σύγκλισης: -0.019676
Method: Ant Colony: 
	Original CDT had: 253/488 obtuse faces
	We inserted 199 steiner points:
		Middle of largest edge: 1
		Circumcenter: 2
		Projection: 196
		Polygon Cnetroid: 0
Final obtuse faces: 239/875
Αρχικές αμβλείες: 253
Τελικές αμβλείες: 239

Αρχικά faces: 488
Τελικές faces: 875

Αρχική ενέργεια: 759
Τελική ενέργεια: 876.2

5.5336% μείωση αμβλείων
