Input file: .vscode/temp_3_ant.json
Output file: .vscode/output_3_ant.json
point-set_40_1b92b629
40

POINTS_X
77 ,78 ,-5 ,51 ,7 ,-22 ,-47 ,40 ,19 ,69 ,-28 ,52 ,35 ,23 ,54 ,-42 ,-97 ,5 ,-35 ,85 ,60 ,-83 ,41 ,0 ,-50 ,64 ,99 ,-54 ,-66 ,-12 ,57 ,-64 ,-88 ,-67 ,59 ,85 ,91 ,-43 ,33 ,-19 ,
POINTS_Y
79 ,-87 ,-39 ,-77 ,-4 ,73 ,12 ,80 ,93 ,59 ,73 ,66 ,-1 ,52 ,-82 ,63 ,35 ,-41 ,-54 ,36 ,58 ,84 ,42 ,75 ,60 ,20 ,81 ,-50 ,63 ,42 ,95 ,70 ,36 ,72 ,-49 ,11 ,36 ,47 ,57 ,59 ,
REGION_BOUND
16 ,27 ,14 ,1 ,26 ,30 ,8 ,21 ,
NUM CONSTRAINTS
0

ADDITIONAL CONSTRAINTS

METHOD: ant

PARAMETERS:
L: 200, alpha: 3, beta: 0.8, kappa: 8, lambda: 0.5, psi: 3, xi: 1, 
DELAUNAY: true
Α. ΚΥΡΤΟ ΠΕΡΙΒΛΗΜΑ ΧΩΡΙΣ ΠΕΡΙΟΡΙΣΜΟΥΣ
pn:0 obtuses:40 steiners:3
pn:0 obtuses:40 steiners:4
pn:0 obtuses:40 steiners:5
pn:0 obtuses:40 steiners:6
pn:0 obtuses:40 steiners:7
pn:-0.189602 obtuses:39 steiners:8
pn:0 obtuses:39 steiners:9
pn:0.47466 obtuses:41 steiners:10
pn:0 obtuses:41 steiners:11
pn:0 obtuses:41 steiners:12
pn:0 obtuses:41 steiners:13
pn:-0.333198 obtuses:40 steiners:14
pn:0.357901 obtuses:41 steiners:15
pn:0 obtuses:41 steiners:16
pn:0 obtuses:41 steiners:17
pn:0 obtuses:41 steiners:18
pn:0.445696 obtuses:42 steiners:19
pn:-0.469799 obtuses:41 steiners:20
pn:0 obtuses:41 steiners:21
pn:0 obtuses:41 steiners:22
pn:0 obtuses:41 steiners:23
pn:0 obtuses:41 steiners:24
pn:0 obtuses:41 steiners:25
pn:0 obtuses:41 steiners:26
pn:-0.654277 obtuses:40 steiners:27
pn:0 obtuses:40 steiners:28
pn:0 obtuses:40 steiners:29
pn:0 obtuses:40 steiners:30
pn:0 obtuses:40 steiners:31
pn:0 obtuses:40 steiners:32
pn:0 obtuses:40 steiners:33
pn:1.63435 obtuses:42 steiners:34
pn:-0.831307 obtuses:41 steiners:35
pn:0 obtuses:41 steiners:36
pn:0 obtuses:41 steiners:37
pn:0 obtuses:41 steiners:38
pn:-0.950612 obtuses:40 steiners:39
pn:0 obtuses:40 steiners:40
pn:0 obtuses:40 steiners:41
pn:-1.05064 obtuses:39 steiners:42
pn:0 obtuses:39 steiners:43
pn:0 obtuses:39 steiners:44
pn:0 obtuses:39 steiners:45
pn:0 obtuses:39 steiners:46
pn:-1.20781 obtuses:38 steiners:47
pn:0 obtuses:38 steiners:48
pn:2.48764 obtuses:40 steiners:49
pn:0 obtuses:40 steiners:50
pn:0 obtuses:40 steiners:51
pn:2.51261 obtuses:42 steiners:52
pn:-1.26508 obtuses:41 steiners:53
pn:-1.32102 obtuses:40 steiners:54
pn:2.65899 obtuses:42 steiners:55
pn:2.58179 obtuses:44 steiners:56
pn:0 obtuses:44 steiners:57
pn:0 obtuses:44 steiners:58
pn:-1.34485 obtuses:43 steiners:59
pn:0 obtuses:43 steiners:60
pn:0 obtuses:43 steiners:61
pn:0 obtuses:43 steiners:62
pn:1.43681 obtuses:44 steiners:63
pn:2.82263 obtuses:46 steiners:64
pn:-1.41761 obtuses:45 steiners:65
pn:0 obtuses:45 steiners:66
pn:0 obtuses:45 steiners:67
pn:0 obtuses:45 steiners:68
pn:0 obtuses:45 steiners:69
pn:0 obtuses:45 steiners:70
pn:0 obtuses:45 steiners:71
pn:0 obtuses:45 steiners:72
pn:0 obtuses:45 steiners:73
pn:-1.65173 obtuses:44 steiners:74
pn:0 obtuses:44 steiners:75
pn:1.69668 obtuses:45 steiners:76
pn:0 obtuses:45 steiners:77
pn:1.70334 obtuses:46 steiners:78
pn:0 obtuses:46 steiners:79
pn:-1.7473 obtuses:45 steiners:80
pn:0 obtuses:45 steiners:81
pn:0 obtuses:45 steiners:82
pn:0 obtuses:45 steiners:83
pn:3.63096 obtuses:47 steiners:84
pn:-1.81725 obtuses:46 steiners:85
pn:0 obtuses:46 steiners:86
pn:0 obtuses:46 steiners:87
pn:0 obtuses:46 steiners:88
pn:0 obtuses:46 steiners:89
pn:0 obtuses:46 steiners:90
pn:0 obtuses:46 steiners:91
pn:0 obtuses:46 steiners:92
pn:0 obtuses:46 steiners:93
pn:0 obtuses:46 steiners:94
pn:0 obtuses:46 steiners:95
pn:0 obtuses:46 steiners:96
pn:0 obtuses:46 steiners:97
pn:0 obtuses:46 steiners:98
pn:0 obtuses:46 steiners:99
pn:-2.18688 obtuses:45 steiners:100
pn:0 obtuses:45 steiners:101
pn:0 obtuses:45 steiners:102
pn:4.45719 obtuses:47 steiners:103
pn:0 obtuses:47 steiners:104
pn:-2.24738 obtuses:46 steiners:105
pn:0 obtuses:46 steiners:106
pn:0 obtuses:46 steiners:107
pn:-2.36272 obtuses:45 steiners:108
pn:0 obtuses:45 steiners:109
pn:0 obtuses:45 steiners:110
pn:0 obtuses:45 steiners:111
pn:0 obtuses:45 steiners:112
pn:-2.52818 obtuses:44 steiners:113
pn:0 obtuses:44 steiners:114
pn:0 obtuses:44 steiners:115
pn:0 obtuses:44 steiners:116
pn:0 obtuses:44 steiners:117
pn:0 obtuses:44 steiners:118
pn:0 obtuses:44 steiners:119
pn:0 obtuses:44 steiners:120
pn:0 obtuses:44 steiners:121
pn:0 obtuses:44 steiners:122
pn:0 obtuses:44 steiners:123
pn:5.48976 obtuses:46 steiners:124
pn:0 obtuses:46 steiners:125
pn:-2.75834 obtuses:45 steiners:126
pn:0 obtuses:45 steiners:127
pn:0 obtuses:45 steiners:128
pn:0 obtuses:45 steiners:129
pn:0 obtuses:45 steiners:130
pn:0 obtuses:45 steiners:131
pn:0 obtuses:45 steiners:132
pn:0 obtuses:45 steiners:133
pn:0 obtuses:45 steiners:134
pn:0 obtuses:45 steiners:135
pn:0 obtuses:45 steiners:136
pn:0 obtuses:45 steiners:137
pn:0 obtuses:45 steiners:138
pn:0 obtuses:45 steiners:139
pn:0 obtuses:45 steiners:140
pn:0 obtuses:45 steiners:141
pn:0 obtuses:45 steiners:142
pn:0 obtuses:45 steiners:143
pn:0 obtuses:45 steiners:144
pn:0 obtuses:45 steiners:145
pn:0 obtuses:45 steiners:146
pn:-3.29226 obtuses:44 steiners:147
pn:0 obtuses:44 steiners:148
pn:0 obtuses:44 steiners:149
pn:0 obtuses:44 steiners:150
pn:-3.45991 obtuses:43 steiners:151
pn:0 obtuses:43 steiners:152
pn:0 obtuses:43 steiners:153
pn:0 obtuses:43 steiners:154
pn:0 obtuses:43 steiners:155
pn:0 obtuses:43 steiners:156
pn:7.11484 obtuses:45 steiners:157
pn:0 obtuses:45 steiners:158
pn:0 obtuses:45 steiners:159
pn:-3.58441 obtuses:44 steiners:160
pn:0 obtuses:44 steiners:161
pn:0 obtuses:44 steiners:162
pn:0 obtuses:44 steiners:163
pn:0 obtuses:44 steiners:164
pn:0 obtuses:44 steiners:165
pn:0 obtuses:44 steiners:166
pn:7.4012 obtuses:46 steiners:167
pn:0 obtuses:46 steiners:168
pn:0 obtuses:46 steiners:169
pn:0 obtuses:46 steiners:170
pn:0 obtuses:46 steiners:171
pn:0 obtuses:46 steiners:172
pn:0 obtuses:46 steiners:173
pn:0 obtuses:46 steiners:174
pn:0 obtuses:46 steiners:175
pn:0 obtuses:46 steiners:176
pn:0 obtuses:46 steiners:177
pn:-3.90125 obtuses:45 steiners:178
pn:3.92322 obtuses:46 steiners:179
pn:0 obtuses:46 steiners:180
pn:0 obtuses:46 steiners:181
pn:-3.98916 obtuses:45 steiners:182
pn:0 obtuses:45 steiners:183
pn:0 obtuses:45 steiners:184
pn:0 obtuses:45 steiners:185
pn:0 obtuses:45 steiners:186
pn:0 obtuses:45 steiners:187
pn:0 obtuses:45 steiners:188
pn:0 obtuses:45 steiners:189
pn:0 obtuses:45 steiners:190
pn:0 obtuses:45 steiners:191
pn:0 obtuses:45 steiners:192
pn:0 obtuses:45 steiners:193
pn:0 obtuses:45 steiners:194
pn:0 obtuses:45 steiners:195
pn:0 obtuses:45 steiners:196
pn:0 obtuses:45 steiners:197
Warning: The Steiner point is too close to an existing point and will not be inserted.
pn:0 obtuses:45 steiners:198
Randomization pn: 0
Ενέργεια τριγωνοποίσης που δεν συγκλίνει: 293.4
Method: Ant Colony: 
	Original CDT had: 40/70 obtuse faces
	We inserted 198 steiner points:
		Middle of largest edge: 8
		Circumcenter: 13
		Projection: 177
		Polygon Cnetroid: 0
Final obtuse faces: 45/451
Αρχικές αμβλείες: 40
Τελικές αμβλείες: 45

Αρχικά faces: 70
Τελικές faces: 451

Αρχική ενέργεια: 120
Τελική ενέργεια: 293.4

-12.5% αύξηση αμβλείων
