Input file: .vscode/temp_150_ant.json
Output file: .vscode/output_150_ant.json
ortho_60_f744490d
60

POINTS_X
0 ,64770 ,64770 ,194531 ,194531 ,200297 ,200297 ,680987 ,680987 ,1000000 ,1000000 ,1266716 ,1266716 ,1110790 ,1110790 ,998344 ,998344 ,997440 ,997440 ,842965 ,842965 ,997440 ,997440 ,1266716 ,1266716 ,1224944 ,1224944 ,1017003 ,1017003 ,1000000 ,1000000 ,560161 ,560161 ,1000000 ,1000000 ,986093 ,986093 ,745512 ,745512 ,289656 ,289656 ,435548 ,435548 ,289656 ,289656 ,201240 ,201240 ,-126707 ,-126707 ,201240 ,201240 ,189168 ,189168 ,41582 ,41582 ,16244 ,16244 ,6822 ,6822 ,0 ,
POINTS_Y
0 ,0 ,-409086 ,-409086 ,0 ,0 ,-81419 ,-81419 ,0 ,0 ,103218 ,103218 ,225090 ,225090 ,340820 ,340820 ,225090 ,225090 ,287929 ,287929 ,462682 ,462682 ,479083 ,479083 ,587644 ,587644 ,654980 ,654980 ,587644 ,587644 ,607525 ,607525 ,835255 ,835255 ,1000000 ,1000000 ,1518336 ,1518336 ,1790150 ,1790150 ,1737655 ,1737655 ,1586538 ,1586538 ,1518336 ,1518336 ,1476827 ,1476827 ,1202235 ,1202235 ,1000000 ,1000000 ,970010 ,970010 ,1000000 ,1000000 ,1050430 ,1050430 ,1000000 ,1000000 ,
REGION_BOUND
0 ,1 ,2 ,3 ,4 ,5 ,6 ,7 ,8 ,9 ,10 ,11 ,12 ,13 ,14 ,15 ,16 ,17 ,18 ,19 ,20 ,21 ,22 ,23 ,24 ,25 ,26 ,27 ,28 ,29 ,30 ,31 ,32 ,33 ,34 ,35 ,36 ,37 ,38 ,39 ,40 ,41 ,42 ,43 ,44 ,45 ,46 ,47 ,48 ,49 ,50 ,51 ,52 ,53 ,54 ,55 ,56 ,57 ,58 ,59 ,
NUM CONSTRAINTS
0

ADDITIONAL CONSTRAINTS

METHOD: ant

PARAMETERS:
L: 150, alpha: 3, beta: 0.8, kappa: 8, lambda: 0.5, psi: 3, xi: 1, 
DELAUNAY: true
Δ. Μη κυρτό boundary με ευθύγραμμα τμήματα παράλληλα στους άξονες χωρίςm περιορισμούς.
Warning: The Steiner point is too close to an existing point and will not be inserted.
pn:0 obtuses:46 steiners:3
pn:-0.0764 obtuses:45 steiners:4
pn:0 obtuses:45 steiners:5
pn:0 obtuses:45 steiners:6
pn:0 obtuses:45 steiners:7
pn:0 obtuses:45 steiners:8
pn:0 obtuses:45 steiners:9
pn:0 obtuses:45 steiners:10
pn:0 obtuses:45 steiners:11
pn:0 obtuses:45 steiners:12
The triangle is infinite 
pn:0 obtuses:45 steiners:13
pn:0 obtuses:45 steiners:14
The triangle is infinite 
pn:0 obtuses:45 steiners:15
pn:0 obtuses:45 steiners:16
The triangle is infinite 
pn:0 obtuses:45 steiners:17
pn:0 obtuses:45 steiners:18
pn:0 obtuses:45 steiners:19
pn:0 obtuses:45 steiners:20
pn:0 obtuses:45 steiners:21
pn:0 obtuses:45 steiners:22
pn:0 obtuses:45 steiners:23
pn:0 obtuses:45 steiners:24
pn:1.58097 obtuses:48 steiners:25
The triangle is infinite 
pn:0 obtuses:48 steiners:26
pn:0 obtuses:48 steiners:27
The triangle is infinite 
The triangle is infinite 
pn:0 obtuses:48 steiners:28
pn:0 obtuses:48 steiners:29
pn:0 obtuses:48 steiners:30
pn:0 obtuses:48 steiners:31
pn:0 obtuses:48 steiners:32
pn:0 obtuses:48 steiners:33
pn:0 obtuses:48 steiners:34
pn:0 obtuses:48 steiners:35
pn:0 obtuses:48 steiners:36
pn:0 obtuses:48 steiners:37
The triangle is infinite 
pn:0 obtuses:48 steiners:38
The triangle is infinite 
pn:0 obtuses:48 steiners:39
pn:0 obtuses:48 steiners:40
pn:0 obtuses:48 steiners:41
pn:0 obtuses:48 steiners:42
The triangle is infinite 
The triangle is infinite 
The triangle is infinite 
pn:0 obtuses:48 steiners:43
The triangle is infinite 
pn:0 obtuses:48 steiners:44
The triangle is infinite 
The triangle is infinite 
pn:0 obtuses:48 steiners:45
pn:-0.957892 obtuses:47 steiners:46
The triangle is infinite 
The triangle is infinite 
pn:0 obtuses:47 steiners:47
The triangle is infinite 
The triangle is infinite 
The triangle is infinite 
pn:0 obtuses:47 steiners:48
The triangle is infinite 
The triangle is infinite 
pn:0 obtuses:47 steiners:49
The triangle is infinite 
pn:0 obtuses:47 steiners:50
The triangle is infinite 
The triangle is infinite 
The triangle is infinite 
pn:0 obtuses:47 steiners:51
The triangle is infinite 
The triangle is infinite 
pn:0 obtuses:47 steiners:52
The triangle is infinite 
pn:0 obtuses:47 steiners:53
The triangle is infinite 
The triangle is infinite 
pn:0 obtuses:47 steiners:54
pn:0 obtuses:47 steiners:55
The triangle is infinite 
pn:0 obtuses:47 steiners:56
The triangle is infinite 
pn:0 obtuses:47 steiners:57
The triangle is infinite 
The triangle is infinite 
pn:0 obtuses:47 steiners:58
The triangle is infinite 
pn:0 obtuses:47 steiners:59
The triangle is infinite 
pn:0 obtuses:47 steiners:60
The triangle is infinite 
pn:0 obtuses:47 steiners:61
pn:0 obtuses:47 steiners:62
The triangle is infinite 
pn:0 obtuses:47 steiners:63
pn:0 obtuses:47 steiners:64
The triangle is infinite 
pn:0 obtuses:47 steiners:65
pn:0 obtuses:47 steiners:66
The triangle is infinite 
pn:0 obtuses:47 steiners:67
The triangle is infinite 
pn:0 obtuses:47 steiners:68
pn:0 obtuses:47 steiners:69
The triangle is infinite 
The triangle is infinite 
pn:0 obtuses:47 steiners:70
The triangle is infinite 
The triangle is infinite 
The triangle is infinite 
pn:-1.51616 obtuses:46 steiners:71
Warning: The Steiner point is too close to an existing point and will not be inserted.
The triangle is infinite 
pn:0 obtuses:46 steiners:72
The triangle is infinite 
The triangle is infinite 
The triangle is infinite 
pn:0 obtuses:46 steiners:73
The triangle is infinite 
pn:0 obtuses:46 steiners:74
The triangle is infinite 
pn:0 obtuses:46 steiners:75
The triangle is infinite 
pn:0 obtuses:46 steiners:76
The triangle is infinite 
pn:0 obtuses:46 steiners:77
The triangle is infinite 
The triangle is infinite 
pn:0 obtuses:46 steiners:78
The triangle is infinite 
The triangle is infinite 
The triangle is infinite 
pn:0 obtuses:46 steiners:79
The triangle is infinite 
pn:0 obtuses:46 steiners:80
The triangle is infinite 
The triangle is infinite 
pn:0 obtuses:46 steiners:81
The triangle is infinite 
The triangle is infinite 
The triangle is infinite 
pn:0 obtuses:46 steiners:82
pn:0 obtuses:46 steiners:83
The triangle is infinite 
pn:0 obtuses:46 steiners:84
The triangle is infinite 
pn:0 obtuses:46 steiners:85
The triangle is infinite 
pn:0 obtuses:46 steiners:86
pn:0 obtuses:46 steiners:87
The triangle is infinite 
pn:0 obtuses:46 steiners:88
The triangle is infinite 
The triangle is infinite 
pn:0 obtuses:46 steiners:89
The triangle is infinite 
pn:0 obtuses:46 steiners:90
pn:0 obtuses:46 steiners:91
The triangle is infinite 
The triangle is infinite 
pn:0 obtuses:46 steiners:92
pn:0 obtuses:46 steiners:93
The triangle is infinite 
The triangle is infinite 
pn:0 obtuses:46 steiners:94
The triangle is infinite 
The triangle is infinite 
pn:0 obtuses:46 steiners:95
pn:0 obtuses:46 steiners:96
The triangle is infinite 
The triangle is infinite 
pn:0 obtuses:46 steiners:97
The triangle is infinite 
The triangle is infinite 
pn:0 obtuses:46 steiners:98
pn:0 obtuses:46 steiners:99
The triangle is infinite 
The triangle is infinite 
The triangle is infinite 
pn:0 obtuses:46 steiners:100
pn:0 obtuses:46 steiners:101
The triangle is infinite 
The triangle is infinite 
The triangle is infinite 
pn:0 obtuses:46 steiners:102
pn:0 obtuses:46 steiners:103
The triangle is infinite 
pn:0 obtuses:46 steiners:104
The triangle is infinite 
pn:0 obtuses:46 steiners:105
The triangle is infinite 
pn:0 obtuses:46 steiners:106
The triangle is infinite 
pn:0 obtuses:46 steiners:107
The triangle is infinite 
pn:0 obtuses:46 steiners:108
The triangle is infinite 
The triangle is infinite 
pn:0 obtuses:46 steiners:109
pn:0 obtuses:46 steiners:110
pn:-2.42865 obtuses:45 steiners:111
The triangle is infinite 
pn:0 obtuses:45 steiners:112
The triangle is infinite 
The triangle is infinite 
pn:0 obtuses:45 steiners:113
The triangle is infinite 
The triangle is infinite 
pn:0 obtuses:45 steiners:114
The triangle is infinite 
The triangle is infinite 
The triangle is infinite 
The triangle is infinite 
pn:0 obtuses:45 steiners:115
pn:0 obtuses:45 steiners:116
The triangle is infinite 
The triangle is infinite 
The triangle is infinite 
pn:0 obtuses:45 steiners:117
Μέσος ρυθμός σύγκλισης: -0.0290439
Method: Ant Colony: 
	Original CDT had: 47/106 obtuse faces
	We inserted 117 steiner points:
		Middle of largest edge: 0
		Circumcenter: 0
		Projection: 117
		Polygon Cnetroid: 0
Final obtuse faces: 45/338
Αρχικές αμβλείες: 47
Αρχικά faces: 106
Αρχική ενέργεια: 141
 Steiners added: 117
Τελικές αμβλείες: 45
Τελικές faces: 338
Τελική ενέργεια: 228.6
Metric: 0.0184275
