Input file: .vscode/temp_100_ls.json
Output file: .vscode/output_100_ls.json
ortho_60_f744490d
60

POINTS_X
0 ,64770 ,64770 ,194531 ,194531 ,200297 ,200297 ,680987 ,680987 ,1000000 ,1000000 ,1266716 ,1266716 ,1110790 ,1110790 ,998344 ,998344 ,997440 ,997440 ,842965 ,842965 ,997440 ,997440 ,1266716 ,1266716 ,1224944 ,1224944 ,1017003 ,1017003 ,1000000 ,1000000 ,560161 ,560161 ,1000000 ,1000000 ,986093 ,986093 ,745512 ,745512 ,289656 ,289656 ,435548 ,435548 ,289656 ,289656 ,201240 ,201240 ,-126707 ,-126707 ,201240 ,201240 ,189168 ,189168 ,41582 ,41582 ,16244 ,16244 ,6822 ,6822 ,0 ,
POINTS_Y
0 ,0 ,-409086 ,-409086 ,0 ,0 ,-81419 ,-81419 ,0 ,0 ,103218 ,103218 ,225090 ,225090 ,340820 ,340820 ,225090 ,225090 ,287929 ,287929 ,462682 ,462682 ,479083 ,479083 ,587644 ,587644 ,654980 ,654980 ,587644 ,587644 ,607525 ,607525 ,835255 ,835255 ,1000000 ,1000000 ,1518336 ,1518336 ,1790150 ,1790150 ,1737655 ,1737655 ,1586538 ,1586538 ,1518336 ,1518336 ,1476827 ,1476827 ,1202235 ,1202235 ,1000000 ,1000000 ,970010 ,970010 ,1000000 ,1000000 ,1050430 ,1050430 ,1000000 ,1000000 ,
REGION_BOUND
0 ,1 ,2 ,3 ,4 ,5 ,6 ,7 ,8 ,9 ,10 ,11 ,12 ,13 ,14 ,15 ,16 ,17 ,18 ,19 ,20 ,21 ,22 ,23 ,24 ,25 ,26 ,27 ,28 ,29 ,30 ,31 ,32 ,33 ,34 ,35 ,36 ,37 ,38 ,39 ,40 ,41 ,42 ,43 ,44 ,45 ,46 ,47 ,48 ,49 ,50 ,51 ,52 ,53 ,54 ,55 ,56 ,57 ,58 ,59 ,
NUM CONSTRAINTS
0

ADDITIONAL CONSTRAINTS

METHOD: ls

PARAMETERS:
L: 100, alpha: 3, beta: 0.8, kappa: 8, lambda: 0.5, psi: 3, xi: 1, 
DELAUNAY: true
Δ. Μη κυρτό boundary με ευθύγραμμα τμήματα παράλληλα στους άξονες χωρίςm περιορισμούς.
pn:-0.0554249 obtuses:44 steiners:3
Warning: The Steiner point is too close to an existing point and will not be inserted.
pn:-0.0799129 obtuses:43 steiners:4
Stopping cause triangulation was not improved
iteration: 17 out of: 100
Μέσος ρυθμός σύγκλισης: -0.0338345
Method: Local search
	Inserted: 4 Steiner points
Obtuse faces are now: 43/110
Αρχικές αμβλείες: 47
Αρχικά faces: 106
Αρχική ενέργεια: 141
 Steiners added: 4
Τελικές αμβλείες: 43
Τελικές faces: 110
Τελική ενέργεια: 132.2
Metric: 1.66667
