Input file: .vscode/temp_200_ant.json
Output file: .vscode/output_200_ant.json
ortho_60_f744490d
60

POINTS_X
0 ,64770 ,64770 ,194531 ,194531 ,200297 ,200297 ,680987 ,680987 ,1000000 ,1000000 ,1266716 ,1266716 ,1110790 ,1110790 ,998344 ,998344 ,997440 ,997440 ,842965 ,842965 ,997440 ,997440 ,1266716 ,1266716 ,1224944 ,1224944 ,1017003 ,1017003 ,1000000 ,1000000 ,560161 ,560161 ,1000000 ,1000000 ,986093 ,986093 ,745512 ,745512 ,289656 ,289656 ,435548 ,435548 ,289656 ,289656 ,201240 ,201240 ,-126707 ,-126707 ,201240 ,201240 ,189168 ,189168 ,41582 ,41582 ,16244 ,16244 ,6822 ,6822 ,0 ,
POINTS_Y
0 ,0 ,-409086 ,-409086 ,0 ,0 ,-81419 ,-81419 ,0 ,0 ,103218 ,103218 ,225090 ,225090 ,340820 ,340820 ,225090 ,225090 ,287929 ,287929 ,462682 ,462682 ,479083 ,479083 ,587644 ,587644 ,654980 ,654980 ,587644 ,587644 ,607525 ,607525 ,835255 ,835255 ,1000000 ,1000000 ,1518336 ,1518336 ,1790150 ,1790150 ,1737655 ,1737655 ,1586538 ,1586538 ,1518336 ,1518336 ,1476827 ,1476827 ,1202235 ,1202235 ,1000000 ,1000000 ,970010 ,970010 ,1000000 ,1000000 ,1050430 ,1050430 ,1000000 ,1000000 ,
REGION_BOUND
0 ,1 ,2 ,3 ,4 ,5 ,6 ,7 ,8 ,9 ,10 ,11 ,12 ,13 ,14 ,15 ,16 ,17 ,18 ,19 ,20 ,21 ,22 ,23 ,24 ,25 ,26 ,27 ,28 ,29 ,30 ,31 ,32 ,33 ,34 ,35 ,36 ,37 ,38 ,39 ,40 ,41 ,42 ,43 ,44 ,45 ,46 ,47 ,48 ,49 ,50 ,51 ,52 ,53 ,54 ,55 ,56 ,57 ,58 ,59 ,
NUM CONSTRAINTS
0

ADDITIONAL CONSTRAINTS

METHOD: ant

PARAMETERS:
L: 200, alpha: 3, beta: 0.8, kappa: 8, lambda: 0.5, psi: 3, xi: 1, 
DELAUNAY: true
Δ. Μη κυρτό boundary με ευθύγραμμα τμήματα παράλληλα στους άξονες χωρίςm περιορισμούς.
The triangle is infinite 
pn:0 obtuses:46 steiners:3
pn:0 obtuses:46 steiners:4
The triangle is infinite 
pn:0 obtuses:46 steiners:5
pn:0 obtuses:46 steiners:6
The triangle is infinite 
pn:0 obtuses:46 steiners:7
pn:0 obtuses:46 steiners:8
pn:0 obtuses:46 steiners:9
pn:0 obtuses:46 steiners:10
The triangle is infinite 
pn:0 obtuses:46 steiners:11
pn:0 obtuses:46 steiners:12
The triangle is infinite 
pn:-0.27459 obtuses:45 steiners:13
The triangle is infinite 
pn:0 obtuses:45 steiners:14
pn:0.935438 obtuses:48 steiners:15
pn:-0.326215 obtuses:47 steiners:16
pn:0 obtuses:47 steiners:17
The triangle is infinite 
pn:0 obtuses:47 steiners:18
pn:0 obtuses:47 steiners:19
pn:0 obtuses:47 steiners:20
pn:0 obtuses:47 steiners:21
The triangle is infinite 
pn:0 obtuses:47 steiners:22
pn:0 obtuses:47 steiners:23
The triangle is infinite 
pn:0 obtuses:47 steiners:24
pn:0 obtuses:47 steiners:25
The triangle is infinite 
pn:0 obtuses:47 steiners:26
The triangle is infinite 
The triangle is infinite 
pn:0 obtuses:47 steiners:27
pn:0 obtuses:47 steiners:28
The triangle is infinite 
The triangle is infinite 
pn:0 obtuses:47 steiners:29
pn:0 obtuses:47 steiners:30
pn:0 obtuses:47 steiners:31
The triangle is infinite 
pn:0 obtuses:47 steiners:32
pn:0 obtuses:47 steiners:33
pn:0 obtuses:47 steiners:34
pn:0 obtuses:47 steiners:35
pn:0 obtuses:47 steiners:36
pn:-0.784927 obtuses:46 steiners:37
pn:0 obtuses:46 steiners:38
pn:0 obtuses:46 steiners:39
The triangle is infinite 
pn:0 obtuses:46 steiners:40
pn:0 obtuses:46 steiners:41
The triangle is infinite 
pn:0 obtuses:46 steiners:42
The triangle is infinite 
pn:0 obtuses:46 steiners:43
The triangle is infinite 
pn:0 obtuses:46 steiners:44
pn:-0.97802 obtuses:45 steiners:45
pn:0 obtuses:45 steiners:46
pn:0 obtuses:45 steiners:47
pn:0 obtuses:45 steiners:48
pn:-1.08989 obtuses:44 steiners:49
pn:0 obtuses:44 steiners:50
pn:0 obtuses:44 steiners:51
pn:0 obtuses:44 steiners:52
pn:0 obtuses:44 steiners:53
pn:0 obtuses:44 steiners:54
The triangle is infinite 
pn:0 obtuses:44 steiners:55
The triangle is infinite 
pn:0 obtuses:44 steiners:56
pn:0 obtuses:44 steiners:57
The triangle is infinite 
The triangle is infinite 
pn:0 obtuses:44 steiners:58
pn:0 obtuses:44 steiners:59
The triangle is infinite 
pn:0 obtuses:44 steiners:60
pn:0 obtuses:44 steiners:61
The triangle is infinite 
pn:0 obtuses:44 steiners:62
The triangle is infinite 
pn:0 obtuses:44 steiners:63
The triangle is infinite 
pn:0 obtuses:44 steiners:64
The triangle is infinite 
pn:0 obtuses:44 steiners:65
The triangle is infinite 
pn:0 obtuses:44 steiners:66
The triangle is infinite 
pn:0 obtuses:44 steiners:67
The triangle is infinite 
The triangle is infinite 
pn:0 obtuses:44 steiners:68
The triangle is infinite 
pn:0 obtuses:44 steiners:69
The triangle is infinite 
pn:0 obtuses:44 steiners:70
pn:0 obtuses:44 steiners:71
The triangle is infinite 
pn:0 obtuses:44 steiners:72
pn:0 obtuses:44 steiners:73
The triangle is infinite 
pn:0 obtuses:44 steiners:74
The triangle is infinite 
The triangle is infinite 
pn:0 obtuses:44 steiners:75
The triangle is infinite 
pn:0 obtuses:44 steiners:76
The triangle is infinite 
pn:0 obtuses:44 steiners:77
The triangle is infinite 
pn:0 obtuses:44 steiners:78
The triangle is infinite 
pn:0 obtuses:44 steiners:79
The triangle is infinite 
pn:0 obtuses:44 steiners:80
The triangle is infinite 
pn:0 obtuses:44 steiners:81
The triangle is infinite 
pn:0 obtuses:44 steiners:82
pn:0 obtuses:44 steiners:83
pn:0 obtuses:44 steiners:84
pn:0 obtuses:44 steiners:85
pn:-1.96558 obtuses:43 steiners:86
The triangle is infinite 
pn:0 obtuses:43 steiners:87
pn:0 obtuses:43 steiners:88
The triangle is infinite 
pn:0 obtuses:43 steiners:89
pn:0 obtuses:43 steiners:90
The triangle is infinite 
pn:0 obtuses:43 steiners:91
pn:0 obtuses:43 steiners:92
The triangle is infinite 
pn:0 obtuses:43 steiners:93
pn:0 obtuses:43 steiners:94
The triangle is infinite 
pn:0 obtuses:43 steiners:95
The triangle is infinite 
pn:0 obtuses:43 steiners:96
The triangle is infinite 
The triangle is infinite 
pn:0 obtuses:43 steiners:97
pn:0 obtuses:43 steiners:98
The triangle is infinite 
The triangle is infinite 
pn:0 obtuses:43 steiners:99
pn:0 obtuses:43 steiners:100
The triangle is infinite 
The triangle is infinite 
pn:0 obtuses:43 steiners:101
The triangle is infinite 
pn:0 obtuses:43 steiners:102
The triangle is infinite 
The triangle is infinite 
pn:0 obtuses:43 steiners:103
The triangle is infinite 
pn:0 obtuses:43 steiners:104
The triangle is infinite 
The triangle is infinite 
pn:0 obtuses:43 steiners:105
pn:0 obtuses:43 steiners:106
pn:0 obtuses:43 steiners:107
pn:0 obtuses:43 steiners:108
pn:0 obtuses:43 steiners:109
pn:0 obtuses:43 steiners:110
pn:0 obtuses:43 steiners:111
pn:0 obtuses:43 steiners:112
pn:0 obtuses:43 steiners:113
pn:0 obtuses:43 steiners:114
The triangle is infinite 
pn:0 obtuses:43 steiners:115
The triangle is infinite 
pn:0 obtuses:43 steiners:116
The triangle is infinite 
The triangle is infinite 
The triangle is infinite 
pn:0 obtuses:43 steiners:117
The triangle is infinite 
pn:0 obtuses:43 steiners:118
The triangle is infinite 
The triangle is infinite 
pn:0 obtuses:43 steiners:119
pn:0 obtuses:43 steiners:120
The triangle is infinite 
The triangle is infinite 
pn:0 obtuses:43 steiners:121
pn:0 obtuses:43 steiners:122
The triangle is infinite 
The triangle is infinite 
pn:0 obtuses:43 steiners:123
pn:0 obtuses:43 steiners:124
pn:-2.92953 obtuses:42 steiners:125
pn:0 obtuses:42 steiners:126
pn:0 obtuses:42 steiners:127
pn:0 obtuses:42 steiners:128
pn:0 obtuses:42 steiners:129
pn:0 obtuses:42 steiners:130
The triangle is infinite 
pn:0 obtuses:42 steiners:131
The triangle is infinite 
pn:0 obtuses:42 steiners:132
The triangle is infinite 
The triangle is infinite 
The triangle is infinite 
The triangle is infinite 
pn:0 obtuses:42 steiners:133
pn:0 obtuses:42 steiners:134
pn:0 obtuses:42 steiners:135
pn:0 obtuses:42 steiners:136
pn:0 obtuses:42 steiners:137
pn:0 obtuses:42 steiners:138
The triangle is infinite 
pn:0 obtuses:42 steiners:139
pn:0 obtuses:42 steiners:140
The triangle is infinite 
pn:0 obtuses:42 steiners:141
pn:0 obtuses:42 steiners:142
pn:0 obtuses:42 steiners:143
pn:0 obtuses:42 steiners:144
pn:0 obtuses:42 steiners:145
The triangle is infinite 
pn:0 obtuses:42 steiners:146
The triangle is infinite 
The triangle is infinite 
pn:0 obtuses:42 steiners:147
The triangle is infinite 
The triangle is infinite 
The triangle is infinite 
pn:0 obtuses:42 steiners:148
The triangle is infinite 
pn:0 obtuses:42 steiners:149
The triangle is infinite 
The triangle is infinite 
pn:0 obtuses:42 steiners:150
pn:0 obtuses:42 steiners:151
pn:0 obtuses:42 steiners:152
The triangle is infinite 
pn:0 obtuses:42 steiners:153
The triangle is infinite 
pn:0 obtuses:42 steiners:154
The triangle is infinite 
The triangle is infinite 
pn:0 obtuses:42 steiners:155
pn:0 obtuses:42 steiners:156
pn:0 obtuses:42 steiners:157
pn:0 obtuses:42 steiners:158
pn:0 obtuses:42 steiners:159
The triangle is infinite 
pn:0 obtuses:42 steiners:160
The triangle is infinite 
pn:0 obtuses:42 steiners:161
pn:0 obtuses:42 steiners:162
pn:0 obtuses:42 steiners:163
The triangle is infinite 
The triangle is infinite 
pn:0 obtuses:42 steiners:164
The triangle is infinite 
pn:0 obtuses:42 steiners:165
pn:0 obtuses:42 steiners:166
pn:0 obtuses:42 steiners:167
The triangle is infinite 
pn:0 obtuses:42 steiners:168
The triangle is infinite 
pn:0 obtuses:42 steiners:169
Μέσος ρυθμός σύγκλισης: -0.0438658
Method: Ant Colony: 
	Original CDT had: 47/106 obtuse faces
	We inserted 169 steiner points:
		Middle of largest edge: 0
		Circumcenter: 0
		Projection: 169
		Polygon Cnetroid: 0
Final obtuse faces: 42/439
Αρχικές αμβλείες: 47
Αρχικά faces: 106
Αρχική ενέργεια: 141
 Steiners added: 169
Τελικές αμβλείες: 42
Τελικές faces: 439
Τελική ενέργεια: 261.2
Metric: 0.0320376
