Input file: .vscode/temp_7_ant.json
Output file: .vscode/output_7_ant.json
simple-polygon_250_6e9d9c26
250

POINTS_X
10075 ,10175 ,10275 ,10175 ,10075 ,9975 ,9875 ,9775 ,9975 ,9875 ,9775 ,9675 ,9675 ,9775 ,9875 ,9975 ,10075 ,9975 ,9775 ,9675 ,9675 ,9775 ,9875 ,9975 ,10075 ,9975 ,9875 ,9775 ,9675 ,9675 ,9775 ,9875 ,9675 ,9675 ,9775 ,10025 ,10225 ,10175 ,10075 ,9975 ,9875 ,9975 ,10075 ,10175 ,10275 ,10375 ,11125 ,11125 ,11125 ,10375 ,10275 ,10175 ,10375 ,10275 ,10175 ,10075 ,10075 ,10175 ,10275 ,10375 ,10375 ,10275 ,10175 ,10075 ,10175 ,10275 ,10375 ,10275 ,10375 ,10375 ,10375 ,10275 ,10175 ,10075 ,9975 ,9875 ,9775 ,9675 ,9675 ,9775 ,9975 ,10075 ,10275 ,10375 ,10375 ,10275 ,10175 ,10075 ,9975 ,9875 ,9775 ,9675 ,9575 ,9675 ,9675 ,9825 ,9825 ,10075 ,9825 ,9825 ,9825 ,9675 ,9775 ,9875 ,9975 ,10075 ,10175 ,10275 ,10375 ,10375 ,10425 ,10275 ,10175 ,10075 ,10075 ,9975 ,9975 ,9875 ,9775 ,9675 ,4275 ,3925 ,3825 ,3525 ,3625 ,3725 ,3825 ,3925 ,4025 ,4125 ,4225 ,4225 ,4125 ,4025 ,3925 ,3825 ,3725 ,3625 ,3525 ,3675 ,3675 ,3675 ,3925 ,3675 ,3675 ,3525 ,3525 ,3425 ,3525 ,3525 ,3625 ,3625 ,3725 ,3925 ,4025 ,3925 ,3825 ,3725 ,3725 ,3625 ,3525 ,3525 ,3525 ,3525 ,3525 ,3625 ,3725 ,3825 ,3925 ,4025 ,4125 ,4225 ,4025 ,4125 ,4225 ,4225 ,4125 ,4025 ,3825 ,3725 ,3625 ,3525 ,3525 ,3625 ,3725 ,3825 ,3925 ,4025 ,3925 ,3825 ,3725 ,3625 ,3525 ,3525 ,3725 ,3825 ,3925 ,4025 ,4125 ,4025 ,3925 ,3825 ,3725 ,3625 ,3525 ,3525 ,3625 ,3875 ,4075 ,4125 ,4225 ,4225 ,4225 ,4975 ,4975 ,4975 ,4225 ,4125 ,4125 ,4225 ,4225 ,4125 ,3925 ,3825 ,3825 ,3925 ,4025 ,4025 ,3925 ,3825 ,3725 ,3625 ,3725 ,3625 ,3625 ,3725 ,3825 ,3925 ,4025 ,4225 ,4225 ,4125 ,4025 ,4125 ,4225 ,4875 ,9675 ,9775 ,9875 ,9975 ,
POINTS_Y
5350 ,5350 ,5350 ,5150 ,5150 ,5150 ,5150 ,5150 ,4850 ,4850 ,4850 ,4850 ,4650 ,4650 ,4650 ,4650 ,4650 ,4350 ,4350 ,4350 ,4150 ,4150 ,4150 ,4150 ,3850 ,3850 ,3850 ,3850 ,3850 ,3650 ,3650 ,3650 ,3350 ,3200 ,3200 ,3200 ,3200 ,3350 ,3350 ,3350 ,3350 ,3650 ,3650 ,3650 ,3650 ,3650 ,3750 ,3900 ,4050 ,3850 ,3850 ,3850 ,4150 ,4150 ,4150 ,4150 ,4350 ,4350 ,4350 ,4350 ,4650 ,4650 ,4650 ,4850 ,4850 ,4850 ,4850 ,5150 ,5150 ,5350 ,5650 ,5650 ,5650 ,5650 ,5650 ,5650 ,5650 ,5650 ,5850 ,5850 ,5850 ,5850 ,5850 ,5850 ,6150 ,6150 ,6150 ,6150 ,6150 ,6150 ,6150 ,6150 ,6450 ,6450 ,6650 ,7150 ,7500 ,7600 ,7700 ,7850 ,8050 ,8300 ,8300 ,8300 ,8300 ,8300 ,8300 ,8300 ,8300 ,8600 ,8850 ,8600 ,8600 ,8600 ,8750 ,8750 ,8600 ,8600 ,8600 ,8600 ,8850 ,8750 ,8750 ,8600 ,8600 ,8600 ,8600 ,8600 ,8600 ,8600 ,8600 ,8300 ,8300 ,8300 ,8300 ,8300 ,8300 ,8300 ,8300 ,8050 ,7850 ,7700 ,7600 ,7500 ,7150 ,6650 ,6450 ,6450 ,6150 ,5850 ,5850 ,6150 ,6150 ,6150 ,5850 ,5850 ,5850 ,5850 ,5650 ,5650 ,5650 ,5350 ,5150 ,4850 ,4650 ,4650 ,4650 ,4650 ,4650 ,4650 ,4650 ,4650 ,4350 ,4350 ,4350 ,4150 ,4150 ,4150 ,4350 ,4350 ,4350 ,4350 ,4150 ,4150 ,4150 ,4150 ,4150 ,3850 ,3850 ,3850 ,3850 ,3850 ,3850 ,3650 ,3650 ,3650 ,3650 ,3650 ,3650 ,3350 ,3350 ,3350 ,3350 ,3350 ,3350 ,3200 ,3200 ,3200 ,3200 ,3350 ,3350 ,3650 ,3850 ,3750 ,3900 ,4050 ,4850 ,4850 ,5150 ,5150 ,5350 ,5350 ,5350 ,5350 ,5150 ,5150 ,5150 ,4850 ,4850 ,4850 ,4850 ,4850 ,5150 ,5150 ,5350 ,5350 ,5650 ,5650 ,5650 ,5650 ,5850 ,5850 ,6150 ,6150 ,6150 ,6100 ,5350 ,5350 ,5350 ,5350 ,
REGION_BOUND
0 ,1 ,2 ,3 ,4 ,5 ,6 ,7 ,8 ,9 ,10 ,11 ,12 ,13 ,14 ,15 ,16 ,17 ,18 ,19 ,20 ,21 ,22 ,23 ,24 ,25 ,26 ,27 ,28 ,29 ,30 ,31 ,32 ,33 ,34 ,35 ,36 ,37 ,38 ,39 ,40 ,41 ,42 ,43 ,44 ,45 ,46 ,47 ,48 ,49 ,50 ,51 ,52 ,53 ,54 ,55 ,56 ,57 ,58 ,59 ,60 ,61 ,62 ,63 ,64 ,65 ,66 ,67 ,68 ,69 ,70 ,71 ,72 ,73 ,74 ,75 ,76 ,77 ,78 ,79 ,80 ,81 ,82 ,83 ,84 ,85 ,86 ,87 ,88 ,89 ,90 ,91 ,92 ,93 ,94 ,95 ,96 ,97 ,98 ,99 ,100 ,101 ,102 ,103 ,104 ,105 ,106 ,107 ,108 ,109 ,110 ,111 ,112 ,113 ,114 ,115 ,116 ,117 ,118 ,119 ,120 ,121 ,122 ,123 ,124 ,125 ,126 ,127 ,128 ,129 ,130 ,131 ,132 ,133 ,134 ,135 ,136 ,137 ,138 ,139 ,140 ,141 ,142 ,143 ,144 ,145 ,146 ,147 ,148 ,149 ,150 ,151 ,152 ,153 ,154 ,155 ,156 ,157 ,158 ,159 ,160 ,161 ,162 ,163 ,164 ,165 ,166 ,167 ,168 ,169 ,170 ,171 ,172 ,173 ,174 ,175 ,176 ,177 ,178 ,179 ,180 ,181 ,182 ,183 ,184 ,185 ,186 ,187 ,188 ,189 ,190 ,191 ,192 ,193 ,194 ,195 ,196 ,197 ,198 ,199 ,200 ,201 ,202 ,203 ,204 ,205 ,206 ,207 ,208 ,209 ,210 ,211 ,212 ,213 ,214 ,215 ,216 ,217 ,218 ,219 ,220 ,221 ,222 ,223 ,224 ,225 ,226 ,227 ,228 ,229 ,230 ,231 ,232 ,233 ,234 ,235 ,236 ,237 ,238 ,239 ,240 ,241 ,242 ,243 ,244 ,245 ,246 ,247 ,248 ,249 ,
NUM CONSTRAINTS
0

ADDITIONAL CONSTRAINTS

METHOD: ant

PARAMETERS:
L: 200, alpha: 3, beta: 0.8, kappa: 8, lambda: 0.5, psi: 3, xi: 1, 
DELAUNAY: true
Ε. Μη κυρτό boundary, ακανόνιστο, που δεν εντάσσεται στις κατηγορίες Α-Δ. 
pn:0 obtuses:132 steiners:3
pn:0 obtuses:132 steiners:4
pn:0 obtuses:132 steiners:5
The triangle is infinite 
pn:0 obtuses:132 steiners:6
pn:0 obtuses:132 steiners:7
pn:0 obtuses:132 steiners:8
pn:0 obtuses:132 steiners:9
pn:0 obtuses:132 steiners:10
pn:0 obtuses:132 steiners:11
pn:-0.0873978 obtuses:131 steiners:12
pn:0 obtuses:131 steiners:13
pn:0 obtuses:131 steiners:14
pn:0 obtuses:131 steiners:15
The triangle is infinite 
pn:0 obtuses:131 steiners:16
The triangle is infinite 
pn:0 obtuses:131 steiners:17
pn:0.265084 obtuses:133 steiners:18
pn:-0.139589 obtuses:132 steiners:19
pn:0 obtuses:132 steiners:20
pn:0 obtuses:132 steiners:21
pn:0 obtuses:132 steiners:22
pn:0 obtuses:132 steiners:23
pn:0 obtuses:132 steiners:24
pn:0 obtuses:132 steiners:25
The triangle is infinite 
pn:-0.193892 obtuses:131 steiners:26
pn:0 obtuses:131 steiners:27
The triangle is infinite 
pn:0 obtuses:131 steiners:28
pn:0 obtuses:131 steiners:29
The triangle is infinite 
pn:0 obtuses:131 steiners:30
pn:0 obtuses:131 steiners:31
pn:0 obtuses:131 steiners:32
pn:0 obtuses:131 steiners:33
The triangle is infinite 
pn:0 obtuses:131 steiners:34
pn:0 obtuses:131 steiners:35
The triangle is infinite 
pn:0 obtuses:131 steiners:36
The triangle is infinite 
pn:0 obtuses:131 steiners:37
pn:-0.287341 obtuses:130 steiners:38
pn:0 obtuses:130 steiners:39
pn:0 obtuses:130 steiners:40
pn:0 obtuses:130 steiners:41
pn:0 obtuses:130 steiners:42
pn:0 obtuses:130 steiners:43
pn:0 obtuses:130 steiners:44
pn:0 obtuses:130 steiners:45
pn:0 obtuses:130 steiners:46
pn:0 obtuses:130 steiners:47
pn:0 obtuses:130 steiners:48
pn:0 obtuses:130 steiners:49
pn:0 obtuses:130 steiners:50
pn:0 obtuses:130 steiners:51
pn:0 obtuses:130 steiners:52
pn:0 obtuses:130 steiners:53
pn:0 obtuses:130 steiners:54
pn:0 obtuses:130 steiners:55
pn:0 obtuses:130 steiners:56
pn:0 obtuses:130 steiners:57
pn:0 obtuses:130 steiners:58
Warning: The Steiner point is too close to an existing point and will not be inserted.
pn:0 obtuses:130 steiners:59
The triangle is infinite 
Warning: The Steiner point is too close to an existing point and will not be inserted.
pn:0 obtuses:130 steiners:60
pn:0 obtuses:130 steiners:61
pn:0 obtuses:130 steiners:62
The triangle is infinite 
pn:0 obtuses:130 steiners:63
Warning: The Steiner point is too close to an existing point and will not be inserted.
pn:0 obtuses:130 steiners:64
The triangle is infinite 
Warning: The Steiner point is too close to an existing point and will not be inserted.
The triangle is infinite 
pn:0 obtuses:130 steiners:65
Warning: The Steiner point is too close to an existing point and will not be inserted.
pn:0 obtuses:130 steiners:66
pn:-0.513506 obtuses:129 steiners:67
pn:0 obtuses:129 steiners:68
pn:0 obtuses:129 steiners:69
pn:0 obtuses:129 steiners:70
pn:0 obtuses:129 steiners:71
The triangle is infinite 
Warning: The Steiner point is too close to an existing point and will not be inserted.
pn:0 obtuses:129 steiners:72
pn:0 obtuses:129 steiners:73
The triangle is infinite 
pn:0 obtuses:129 steiners:74
pn:0 obtuses:129 steiners:75
pn:0 obtuses:129 steiners:76
pn:0 obtuses:129 steiners:77
pn:0 obtuses:129 steiners:78
pn:0 obtuses:129 steiners:79
pn:0 obtuses:129 steiners:80
pn:0 obtuses:129 steiners:81
pn:0 obtuses:129 steiners:82
The triangle is infinite 
pn:0 obtuses:129 steiners:83
pn:0 obtuses:129 steiners:84
The triangle is infinite 
pn:0 obtuses:129 steiners:85
pn:0 obtuses:129 steiners:86
pn:0 obtuses:129 steiners:87
pn:0 obtuses:129 steiners:88
pn:0 obtuses:129 steiners:89
pn:0 obtuses:129 steiners:90
pn:0 obtuses:129 steiners:91
Warning: The Steiner point is too close to an existing point and will not be inserted.
pn:0 obtuses:129 steiners:92
pn:0 obtuses:129 steiners:93
pn:0 obtuses:129 steiners:94
pn:0 obtuses:129 steiners:95
pn:0 obtuses:129 steiners:96
The triangle is infinite 
pn:0 obtuses:129 steiners:97
The triangle is infinite 
pn:0 obtuses:129 steiners:98
pn:0 obtuses:129 steiners:99
The triangle is infinite 
pn:0 obtuses:129 steiners:100
pn:0 obtuses:129 steiners:101
The triangle is infinite 
pn:0 obtuses:129 steiners:102
pn:0 obtuses:129 steiners:103
The triangle is infinite 
pn:0 obtuses:129 steiners:104
pn:0 obtuses:129 steiners:105
pn:-0.82101 obtuses:128 steiners:106
pn:0 obtuses:128 steiners:107
pn:0 obtuses:128 steiners:108
pn:0 obtuses:128 steiners:109
pn:0 obtuses:128 steiners:110
pn:0 obtuses:128 steiners:111
pn:0 obtuses:128 steiners:112
pn:0 obtuses:128 steiners:113
pn:0 obtuses:128 steiners:114
pn:0 obtuses:128 steiners:115
pn:0 obtuses:128 steiners:116
pn:0 obtuses:128 steiners:117
pn:0 obtuses:128 steiners:118
pn:0.922178 obtuses:129 steiners:119
pn:0 obtuses:129 steiners:120
pn:0 obtuses:129 steiners:121
The triangle is infinite 
pn:0 obtuses:129 steiners:122
pn:0 obtuses:129 steiners:123
The triangle is infinite 
pn:0 obtuses:129 steiners:124
pn:0 obtuses:129 steiners:125
pn:0 obtuses:129 steiners:126
pn:0 obtuses:129 steiners:127
pn:0 obtuses:129 steiners:128
pn:0 obtuses:129 steiners:129
pn:0 obtuses:129 steiners:130
pn:0 obtuses:129 steiners:131
pn:0 obtuses:129 steiners:132
pn:0 obtuses:129 steiners:133
pn:0 obtuses:129 steiners:134
pn:0 obtuses:129 steiners:135
pn:0 obtuses:129 steiners:136
pn:0 obtuses:129 steiners:137
pn:0 obtuses:129 steiners:138
pn:0 obtuses:129 steiners:139
pn:0 obtuses:129 steiners:140
pn:0 obtuses:129 steiners:141
pn:0 obtuses:129 steiners:142
pn:0 obtuses:129 steiners:143
The triangle is infinite 
The triangle is infinite 
pn:0 obtuses:129 steiners:144
pn:0 obtuses:129 steiners:145
pn:0 obtuses:129 steiners:146
Warning: The Steiner point is too close to an existing point and will not be inserted.
pn:0 obtuses:129 steiners:147
pn:0 obtuses:129 steiners:148
pn:0 obtuses:129 steiners:149
pn:0 obtuses:129 steiners:150
The triangle is infinite 
pn:0 obtuses:129 steiners:151
pn:0 obtuses:129 steiners:152
The triangle is infinite 
pn:0 obtuses:129 steiners:153
pn:2.36158 obtuses:131 steiners:154
pn:0 obtuses:131 steiners:155
pn:0 obtuses:131 steiners:156
pn:0 obtuses:131 steiners:157
Warning: The Steiner point is too close to an existing point and will not be inserted.
pn:0 obtuses:131 steiners:158
The triangle is infinite 
pn:0 obtuses:131 steiners:159
pn:2.4167 obtuses:133 steiners:160
The triangle is infinite 
pn:0 obtuses:133 steiners:161
pn:0 obtuses:133 steiners:162
pn:0 obtuses:133 steiners:163
Warning: The Steiner point is too close to an existing point and will not be inserted.
pn:0 obtuses:133 steiners:164
pn:0 obtuses:133 steiners:165
Warning: The Steiner point is too close to an existing point and will not be inserted.
pn:0 obtuses:133 steiners:166
pn:0 obtuses:133 steiners:167
pn:0 obtuses:133 steiners:168
pn:0 obtuses:133 steiners:169
pn:0 obtuses:133 steiners:170
pn:3.80312 obtuses:136 steiners:171
The triangle is infinite 
Warning: The Steiner point is too close to an existing point and will not be inserted.
pn:0 obtuses:136 steiners:172
pn:0 obtuses:136 steiners:173
The triangle is infinite 
Warning: The Steiner point is too close to an existing point and will not be inserted.
pn:0 obtuses:136 steiners:174
pn:0 obtuses:136 steiners:175
pn:0 obtuses:136 steiners:176
pn:0 obtuses:136 steiners:177
The triangle is infinite 
pn:0 obtuses:136 steiners:178
The triangle is infinite 
pn:0 obtuses:136 steiners:179
pn:0 obtuses:136 steiners:180
pn:0 obtuses:136 steiners:181
pn:0 obtuses:136 steiners:182
pn:0 obtuses:136 steiners:183
pn:0 obtuses:136 steiners:184
pn:0 obtuses:136 steiners:185
The triangle is infinite 
pn:2.70807 obtuses:138 steiners:186
pn:0 obtuses:138 steiners:187
Warning: The Steiner point is too close to an existing point and will not be inserted.
pn:0 obtuses:138 steiners:188
Warning: The Steiner point is too close to an existing point and will not be inserted.
pn:0 obtuses:138 steiners:189
pn:0 obtuses:138 steiners:190
Warning: The Steiner point is too close to an existing point and will not be inserted.
pn:0 obtuses:138 steiners:191
Warning: The Steiner point is too close to an existing point and will not be inserted.
pn:0 obtuses:138 steiners:192
Warning: The Steiner point is too close to an existing point and will not be inserted.
pn:0 obtuses:138 steiners:193
Warning: The Steiner point is too close to an existing point and will not be inserted.
pn:2.78421 obtuses:140 steiners:194
Warning: The Steiner point is too close to an existing point and will not be inserted.
The triangle is infinite 
pn:0 obtuses:140 steiners:195
pn:0 obtuses:140 steiners:196
The triangle is infinite 
pn:0 obtuses:140 steiners:197
pn:0 obtuses:140 steiners:198
pn:0 obtuses:140 steiners:199
Ενέργεια τριγωνοποίσης που δεν συγκλίνει: 579.2
Method: Ant Colony: 
	Original CDT had: 132/482 obtuse faces
	We inserted 199 steiner points:
		Middle of largest edge: 2
		Circumcenter: 7
		Projection: 190
		Polygon Cnetroid: 0
Final obtuse faces: 140/875
Αρχικές αμβλείες: 132
Τελικές αμβλείες: 140

Αρχικά faces: 482
Τελικές faces: 875

Αρχική ενέργεια: 396
Τελική ενέργεια: 579.2

-6.06061% αύξηση αμβλείων
