Input file: .vscode/temp_3_ant.json
Output file: .vscode/output_3_ant.json
simple-polygon-exterior-20_20_1e719235
20

POINTS_X
0 ,307 ,496 ,850 ,1134 ,2047 ,1472 ,1220 ,1409 ,2102 ,2661 ,2488 ,2204 ,567 ,338 ,63 ,496 ,669 ,370 ,441 ,
POINTS_Y
165 ,165 ,291 ,425 ,0 ,0 ,449 ,1417 ,1417 ,1268 ,1496 ,3087 ,2772 ,3111 ,3733 ,3670 ,3111 ,2646 ,2339 ,425 ,
REGION_BOUND
0 ,4 ,5 ,10 ,11 ,14 ,15 ,
NUM CONSTRAINTS
14

ADDITIONAL CONSTRAINTS
[0,1] ,[1,2] ,[2,3] ,[3,4] ,[5,6] ,[6,7] ,[7,8] ,[8,9] ,[9,10] ,[11,12] ,[12,13] ,[16,17] ,[17,18] ,[18,19] ,
METHOD: ant

PARAMETERS:
L: 200, alpha: 3, beta: 0.8, kappa: 8, lambda: 0.5, psi: 3, xi: 1, 
DELAUNAY: true
Β. ΚΥΡΤΟ ΠΕΡΙΒΛΗΜΑ (ΑΝΟΙΧΤΟ)
pn:-0.100679 obtuses:24 steiners:3
pn:-0.14794 obtuses:23 steiners:4
pn:0 obtuses:23 steiners:5
pn:0 obtuses:23 steiners:6
pn:-0.288366 obtuses:22 steiners:7
pn:0 obtuses:22 steiners:8
pn:0 obtuses:22 steiners:9
pn:0.421902 obtuses:23 steiners:10
pn:-0.466391 obtuses:22 steiners:11
pn:0 obtuses:22 steiners:12
pn:0 obtuses:22 steiners:13
pn:0 obtuses:22 steiners:14
pn:0 obtuses:22 steiners:15
pn:0 obtuses:22 steiners:16
pn:0 obtuses:22 steiners:17
pn:0 obtuses:22 steiners:18
pn:0 obtuses:22 steiners:19
pn:0 obtuses:22 steiners:20
pn:-0.953471 obtuses:21 steiners:21
pn:0 obtuses:21 steiners:22
pn:0 obtuses:21 steiners:23
pn:0 obtuses:21 steiners:24
pn:-1.19519 obtuses:20 steiners:25
pn:0 obtuses:20 steiners:26
pn:0 obtuses:20 steiners:27
pn:0 obtuses:20 steiners:28
pn:-1.46171 obtuses:19 steiners:29
pn:0 obtuses:19 steiners:30
pn:-1.6489 obtuses:18 steiners:31
pn:0 obtuses:18 steiners:32
pn:0 obtuses:18 steiners:33
pn:0 obtuses:18 steiners:34
pn:0 obtuses:18 steiners:35
pn:0 obtuses:18 steiners:36
pn:0 obtuses:18 steiners:37
pn:0 obtuses:18 steiners:38
pn:0 obtuses:18 steiners:39
pn:0 obtuses:18 steiners:40
pn:0 obtuses:18 steiners:41
pn:0 obtuses:18 steiners:42
pn:0 obtuses:18 steiners:43
pn:0 obtuses:18 steiners:44
pn:-2.54344 obtuses:17 steiners:45
pn:-2.75831 obtuses:16 steiners:46
pn:0 obtuses:16 steiners:47
pn:0 obtuses:16 steiners:48
pn:0 obtuses:16 steiners:49
pn:-3.19455 obtuses:15 steiners:50
pn:0 obtuses:15 steiners:51
pn:0 obtuses:15 steiners:52
pn:0 obtuses:15 steiners:53
pn:0 obtuses:15 steiners:54
pn:0 obtuses:15 steiners:55
pn:0 obtuses:15 steiners:56
pn:0 obtuses:15 steiners:57
pn:0 obtuses:15 steiners:58
pn:0 obtuses:15 steiners:59
pn:0 obtuses:15 steiners:60
pn:0 obtuses:15 steiners:61
pn:0 obtuses:15 steiners:62
pn:0 obtuses:15 steiners:63
pn:0 obtuses:15 steiners:64
pn:0 obtuses:15 steiners:65
pn:0 obtuses:15 steiners:66
pn:0 obtuses:15 steiners:67
pn:0 obtuses:15 steiners:68
pn:0 obtuses:15 steiners:69
pn:0 obtuses:15 steiners:70
pn:0 obtuses:15 steiners:71
pn:-4.93291 obtuses:14 steiners:72
pn:0 obtuses:14 steiners:73
pn:0 obtuses:14 steiners:74
pn:0 obtuses:14 steiners:75
pn:-5.59507 obtuses:13 steiners:76
pn:0 obtuses:13 steiners:77
pn:0 obtuses:13 steiners:78
pn:0 obtuses:13 steiners:79
pn:0 obtuses:13 steiners:80
pn:0 obtuses:13 steiners:81
pn:-6.5234 obtuses:12 steiners:82
pn:0 obtuses:12 steiners:83
pn:-7.26536 obtuses:11 steiners:84
pn:0 obtuses:11 steiners:85
pn:0 obtuses:11 steiners:86
pn:-8.24424 obtuses:10 steiners:87
pn:0 obtuses:10 steiners:88
pn:0 obtuses:10 steiners:89
pn:0 obtuses:10 steiners:90
pn:0 obtuses:10 steiners:91
pn:0 obtuses:10 steiners:92
pn:0 obtuses:10 steiners:93
pn:0 obtuses:10 steiners:94
pn:0 obtuses:10 steiners:95
pn:0 obtuses:10 steiners:96
pn:17.5939 obtuses:12 steiners:97
pn:0 obtuses:12 steiners:98
pn:0 obtuses:12 steiners:99
pn:0 obtuses:12 steiners:100
pn:0 obtuses:12 steiners:101
pn:0 obtuses:12 steiners:102
pn:0 obtuses:12 steiners:103
pn:0 obtuses:12 steiners:104
pn:0 obtuses:12 steiners:105
pn:-9.17963 obtuses:11 steiners:106
pn:0 obtuses:11 steiners:107
pn:0 obtuses:11 steiners:108
pn:0 obtuses:11 steiners:109
pn:0 obtuses:11 steiners:110
pn:0 obtuses:11 steiners:111
pn:0 obtuses:11 steiners:112
pn:0 obtuses:11 steiners:113
pn:0 obtuses:11 steiners:114
pn:0 obtuses:11 steiners:115
pn:0 obtuses:11 steiners:116
pn:0 obtuses:11 steiners:117
pn:-11.1989 obtuses:10 steiners:118
pn:0 obtuses:10 steiners:119
pn:0 obtuses:10 steiners:120
pn:0 obtuses:10 steiners:121
pn:0 obtuses:10 steiners:122
pn:0 obtuses:10 steiners:123
pn:0 obtuses:10 steiners:124
pn:0 obtuses:10 steiners:125
pn:0 obtuses:10 steiners:126
pn:0 obtuses:10 steiners:127
pn:0 obtuses:10 steiners:128
pn:0 obtuses:10 steiners:129
pn:0 obtuses:10 steiners:130
pn:0 obtuses:10 steiners:131
pn:0 obtuses:10 steiners:132
pn:0 obtuses:10 steiners:133
pn:0 obtuses:10 steiners:134
pn:0 obtuses:10 steiners:135
pn:0 obtuses:10 steiners:136
pn:0 obtuses:10 steiners:137
pn:0 obtuses:10 steiners:138
pn:0 obtuses:10 steiners:139
pn:0 obtuses:10 steiners:140
pn:0 obtuses:10 steiners:141
pn:0 obtuses:10 steiners:142
pn:0 obtuses:10 steiners:143
pn:0 obtuses:10 steiners:144
pn:0 obtuses:10 steiners:145
pn:0 obtuses:10 steiners:146
pn:0 obtuses:10 steiners:147
pn:0 obtuses:10 steiners:148
pn:0 obtuses:10 steiners:149
pn:0 obtuses:10 steiners:150
pn:0 obtuses:10 steiners:151
pn:-15.9621 obtuses:9 steiners:152
pn:0 obtuses:9 steiners:153
pn:0 obtuses:9 steiners:154
pn:0 obtuses:9 steiners:155
pn:0 obtuses:9 steiners:156
pn:0 obtuses:9 steiners:157
pn:31.6055 obtuses:11 steiners:158
pn:0 obtuses:11 steiners:159
pn:26.645 obtuses:13 steiners:160
pn:0 obtuses:13 steiners:161
pn:0 obtuses:13 steiners:162
pn:0 obtuses:13 steiners:163
pn:0 obtuses:13 steiners:164
pn:0 obtuses:13 steiners:165
pn:23.6831 obtuses:15 steiners:166
pn:0 obtuses:15 steiners:167
pn:20.9648 obtuses:17 steiners:168
pn:0 obtuses:17 steiners:169
Warning: The Steiner point is too close to an existing point and will not be inserted.
pn:0 obtuses:17 steiners:170
pn:0 obtuses:17 steiners:171
pn:0 obtuses:17 steiners:172
pn:0 obtuses:17 steiners:173
Warning: The Steiner point is too close to an existing point and will not be inserted.
Warning: The Steiner point is too close to an existing point and will not be inserted.
pn:0 obtuses:17 steiners:174
pn:0 obtuses:17 steiners:175
pn:0 obtuses:17 steiners:176
Warning: The Steiner point is too close to an existing point and will not be inserted.
pn:0 obtuses:17 steiners:177
pn:10.1456 obtuses:18 steiners:178
pn:0 obtuses:18 steiners:179
Warning: The Steiner point is too close to an existing point and will not be inserted.
Warning: The Steiner point is too close to an existing point and will not be inserted.
pn:0 obtuses:18 steiners:180
Warning: The Steiner point is too close to an existing point and will not be inserted.
pn:0 obtuses:18 steiners:181
pn:0 obtuses:18 steiners:182
pn:0 obtuses:18 steiners:183
pn:-10.4885 obtuses:17 steiners:184
pn:0 obtuses:17 steiners:185
pn:0 obtuses:17 steiners:186
pn:10.66 obtuses:18 steiners:187
pn:0 obtuses:18 steiners:188
Warning: The Steiner point is too close to an existing point and will not be inserted.
pn:0 obtuses:18 steiners:189
pn:0 obtuses:18 steiners:190
pn:0 obtuses:18 steiners:191
pn:20.1765 obtuses:20 steiners:192
Warning: The Steiner point is too close to an existing point and will not be inserted.
pn:0 obtuses:20 steiners:193
pn:18.4425 obtuses:22 steiners:194
pn:0 obtuses:22 steiners:195
Warning: The Steiner point is too close to an existing point and will not be inserted.
pn:0 obtuses:22 steiners:196
pn:17.0977 obtuses:24 steiners:197
Warning: The Steiner point is too close to an existing point and will not be inserted.
pn:0 obtuses:24 steiners:198
pn:0 obtuses:24 steiners:199
Ενέργεια τριγωνοποίσης που δεν συγκλίνει: 231.2
Method: Ant Colony: 
	Original CDT had: 25/31 obtuse faces
	We inserted 199 steiner points:
		Middle of largest edge: 9
		Circumcenter: 2
		Projection: 188
		Polygon Cnetroid: 0
Final obtuse faces: 24/413
Αρχικές αμβλείες: 25
Τελικές αμβλείες: 24

Αρχικά faces: 31
Τελικές faces: 413

Αρχική ενέργεια: 75
Τελική ενέργεια: 231.2

4% μείωση αμβλείων
