Input file: .vscode/temp_3_ant.json
Output file: .vscode/output_3_ant.json
simple-polygon_60_0347cd75
60

POINTS_X
2578 ,2271 ,1641 ,1343 ,1228 ,1215 ,910 ,909 ,686 ,179 ,24 ,166 ,444 ,592 ,359 ,215 ,104 ,34 ,0 ,223 ,21 ,10 ,438 ,786 ,815 ,820 ,1012 ,1267 ,1410 ,1760 ,1849 ,2030 ,2569 ,2342 ,2480 ,2972 ,2971 ,3080 ,3397 ,3621 ,3230 ,3278 ,3856 ,3627 ,3685 ,3616 ,3710 ,3931 ,3480 ,3491 ,3354 ,3365 ,3155 ,2914 ,2567 ,2463 ,2283 ,2213 ,2159 ,2414 ,
POINTS_Y
1824 ,1804 ,1550 ,1520 ,1939 ,1940 ,1760 ,1694 ,1806 ,1804 ,1951 ,1536 ,1664 ,1378 ,1042 ,1112 ,856 ,851 ,668 ,578 ,456 ,0 ,328 ,266 ,623 ,614 ,422 ,519 ,128 ,84 ,191 ,411 ,296 ,634 ,652 ,786 ,208 ,167 ,137 ,37 ,372 ,485 ,592 ,1012 ,1076 ,1168 ,1182 ,1552 ,1879 ,1665 ,1640 ,1492 ,1058 ,1453 ,1280 ,1177 ,1121 ,1368 ,1613 ,1532 ,
REGION_BOUND
0 ,1 ,2 ,3 ,4 ,5 ,6 ,7 ,8 ,9 ,10 ,11 ,12 ,13 ,14 ,15 ,16 ,17 ,18 ,19 ,20 ,21 ,22 ,23 ,24 ,25 ,26 ,27 ,28 ,29 ,30 ,31 ,32 ,33 ,34 ,35 ,36 ,37 ,38 ,39 ,40 ,41 ,42 ,43 ,44 ,45 ,46 ,47 ,48 ,49 ,50 ,51 ,52 ,53 ,54 ,55 ,56 ,57 ,58 ,59 ,
NUM CONSTRAINTS
0

ADDITIONAL CONSTRAINTS

METHOD: ant

PARAMETERS:
L: 200, alpha: 3, beta: 0.8, kappa: 8, lambda: 0.5, psi: 3, xi: 1, 
DELAUNAY: true
Ε. Μη κυρτό boundary, ακανόνιστο, που δεν εντάσσεται στις κατηγορίες Α-Δ. 
pn:0 obtuses:73 steiners:3
pn:-0.0479464 obtuses:72 steiners:4
pn:0 obtuses:72 steiners:5
pn:-0.0767119 obtuses:71 steiners:6
pn:0 obtuses:71 steiners:7
pn:0 obtuses:71 steiners:8
pn:0 obtuses:71 steiners:9
pn:0 obtuses:71 steiners:10
The triangle is infinite 
pn:-0.148826 obtuses:70 steiners:11
pn:0 obtuses:70 steiners:12
The triangle is infinite 
pn:0 obtuses:70 steiners:13
pn:0 obtuses:70 steiners:14
The triangle is infinite 
pn:-0.208554 obtuses:69 steiners:15
pn:-0.226203 obtuses:68 steiners:16
The triangle is infinite 
pn:0 obtuses:68 steiners:17
pn:0 obtuses:68 steiners:18
The triangle is infinite 
pn:0 obtuses:68 steiners:19
pn:0 obtuses:68 steiners:20
The triangle is infinite 
pn:0 obtuses:68 steiners:21
pn:0 obtuses:68 steiners:22
pn:0 obtuses:68 steiners:23
pn:0 obtuses:68 steiners:24
pn:0 obtuses:68 steiners:25
pn:0 obtuses:68 steiners:26
pn:0 obtuses:68 steiners:27
pn:0 obtuses:68 steiners:28
pn:0 obtuses:68 steiners:29
pn:-0.437003 obtuses:67 steiners:30
The triangle is infinite 
pn:0 obtuses:67 steiners:31
pn:0 obtuses:67 steiners:32
The triangle is infinite 
pn:0 obtuses:67 steiners:33
pn:0 obtuses:67 steiners:34
The triangle is infinite 
pn:0 obtuses:67 steiners:35
pn:0 obtuses:67 steiners:36
The triangle is infinite 
pn:0 obtuses:67 steiners:37
The triangle is infinite 
pn:0 obtuses:67 steiners:38
The triangle is infinite 
pn:0 obtuses:67 steiners:39
pn:0 obtuses:67 steiners:40
The triangle is infinite 
pn:0 obtuses:67 steiners:41
pn:0 obtuses:67 steiners:42
The triangle is infinite 
pn:0 obtuses:67 steiners:43
The triangle is infinite 
pn:0 obtuses:67 steiners:44
The triangle is infinite 
pn:0 obtuses:67 steiners:45
The triangle is infinite 
pn:0 obtuses:67 steiners:46
The triangle is infinite 
pn:0 obtuses:67 steiners:47
pn:0 obtuses:67 steiners:48
pn:0 obtuses:67 steiners:49
pn:0.733322 obtuses:68 steiners:50
pn:0 obtuses:68 steiners:51
pn:0.751815 obtuses:69 steiners:52
pn:0 obtuses:69 steiners:53
The triangle is infinite 
pn:0 obtuses:69 steiners:54
The triangle is infinite 
pn:0 obtuses:69 steiners:55
pn:0 obtuses:69 steiners:56
pn:0 obtuses:69 steiners:57
pn:-0.83941 obtuses:68 steiners:58
pn:0 obtuses:68 steiners:59
The triangle is infinite 
pn:0 obtuses:68 steiners:60
pn:0 obtuses:68 steiners:61
The triangle is infinite 
pn:0 obtuses:68 steiners:62
pn:0 obtuses:68 steiners:63
The triangle is infinite 
pn:0 obtuses:68 steiners:64
pn:0 obtuses:68 steiners:65
The triangle is infinite 
pn:0 obtuses:68 steiners:66
pn:0 obtuses:68 steiners:67
The triangle is infinite 
pn:0 obtuses:68 steiners:68
pn:0 obtuses:68 steiners:69
The triangle is infinite 
pn:0 obtuses:68 steiners:70
pn:0 obtuses:68 steiners:71
The triangle is infinite 
pn:0 obtuses:68 steiners:72
pn:0 obtuses:68 steiners:73
pn:0 obtuses:68 steiners:74
The triangle is infinite 
pn:0 obtuses:68 steiners:75
pn:0 obtuses:68 steiners:76
pn:0 obtuses:68 steiners:77
pn:0 obtuses:68 steiners:78
pn:0 obtuses:68 steiners:79
pn:0 obtuses:68 steiners:80
pn:0 obtuses:68 steiners:81
pn:0 obtuses:68 steiners:82
pn:0 obtuses:68 steiners:83
pn:0 obtuses:68 steiners:84
pn:0 obtuses:68 steiners:85
pn:0 obtuses:68 steiners:86
pn:0 obtuses:68 steiners:87
pn:1.27738 obtuses:69 steiners:88
pn:0 obtuses:69 steiners:89
pn:0 obtuses:69 steiners:90
pn:0 obtuses:69 steiners:91
pn:0 obtuses:69 steiners:92
The triangle is infinite 
pn:0 obtuses:69 steiners:93
pn:0 obtuses:69 steiners:94
The triangle is infinite 
The triangle is infinite 
pn:2.70016 obtuses:71 steiners:95
pn:0 obtuses:71 steiners:96
pn:0 obtuses:71 steiners:97
pn:0 obtuses:71 steiners:98
pn:0 obtuses:71 steiners:99
pn:0 obtuses:71 steiners:100
pn:0 obtuses:71 steiners:101
pn:0 obtuses:71 steiners:102
pn:0 obtuses:71 steiners:103
The triangle is infinite 
pn:-1.4681 obtuses:70 steiners:104
pn:0 obtuses:70 steiners:105
pn:2.97201 obtuses:72 steiners:106
pn:0 obtuses:72 steiners:107
The triangle is infinite 
The triangle is infinite 
pn:0 obtuses:72 steiners:108
pn:0 obtuses:72 steiners:109
The triangle is infinite 
The triangle is infinite 
pn:0 obtuses:72 steiners:110
pn:0 obtuses:72 steiners:111
The triangle is infinite 
The triangle is infinite 
pn:0 obtuses:72 steiners:112
pn:-1.57344 obtuses:71 steiners:113
The triangle is infinite 
The triangle is infinite 
pn:0 obtuses:71 steiners:114
pn:0 obtuses:71 steiners:115
The triangle is infinite 
pn:0 obtuses:71 steiners:116
pn:1.62939 obtuses:72 steiners:117
The triangle is infinite 
pn:3.21936 obtuses:74 steiners:118
pn:-1.61226 obtuses:73 steiners:119
The triangle is infinite 
pn:0 obtuses:73 steiners:120
pn:1.63947 obtuses:74 steiners:121
pn:3.24017 obtuses:76 steiners:122
pn:3.18198 obtuses:78 steiners:123
pn:0 obtuses:78 steiners:124
pn:0 obtuses:78 steiners:125
pn:0 obtuses:78 steiners:126
pn:0 obtuses:78 steiners:127
pn:0 obtuses:78 steiners:128
Warning: The Steiner point is too close to an existing point and will not be inserted.
Warning: The Steiner point is too close to an existing point and will not be inserted.
pn:-1.65808 obtuses:77 steiners:129
pn:-1.69283 obtuses:76 steiners:130
Warning: The Steiner point is too close to an existing point and will not be inserted.
pn:0 obtuses:76 steiners:131
pn:0 obtuses:76 steiners:132
pn:0 obtuses:76 steiners:133
pn:3.46771 obtuses:78 steiners:134
Warning: The Steiner point is too close to an existing point and will not be inserted.
pn:0 obtuses:78 steiners:135
pn:0 obtuses:78 steiners:136
pn:0 obtuses:78 steiners:137
pn:0 obtuses:78 steiners:138
pn:0 obtuses:78 steiners:139
pn:0 obtuses:78 steiners:140
pn:0 obtuses:78 steiners:141
pn:0 obtuses:78 steiners:142
pn:0 obtuses:78 steiners:143
pn:0 obtuses:78 steiners:144
pn:-1.86453 obtuses:77 steiners:145
The triangle is infinite 
pn:0 obtuses:77 steiners:146
pn:0 obtuses:77 steiners:147
The triangle is infinite 
pn:0 obtuses:77 steiners:148
pn:0 obtuses:77 steiners:149
pn:0 obtuses:77 steiners:150
pn:1.94196 obtuses:78 steiners:151
The triangle is infinite 
pn:1.92996 obtuses:79 steiners:152
The triangle is infinite 
pn:0 obtuses:79 steiners:153
The triangle is infinite 
pn:0 obtuses:79 steiners:154
The triangle is infinite 
The triangle is infinite 
pn:3.86269 obtuses:81 steiners:155
The triangle is infinite 
pn:0 obtuses:81 steiners:156
The triangle is infinite 
The triangle is infinite 
pn:0 obtuses:81 steiners:157
The triangle is infinite 
pn:0 obtuses:81 steiners:158
The triangle is infinite 
The triangle is infinite 
pn:0 obtuses:81 steiners:159
pn:0 obtuses:81 steiners:160
The triangle is infinite 
The triangle is infinite 
pn:0 obtuses:81 steiners:161
pn:0 obtuses:81 steiners:162
pn:0 obtuses:81 steiners:163
pn:0 obtuses:81 steiners:164
pn:0 obtuses:81 steiners:165
pn:0 obtuses:81 steiners:166
pn:0 obtuses:81 steiners:167
Warning: The Steiner point is too close to an existing point and will not be inserted.
pn:0 obtuses:81 steiners:168
The triangle is infinite 
The triangle is infinite 
pn:0 obtuses:81 steiners:169
pn:0 obtuses:81 steiners:170
The triangle is infinite 
pn:4.15873 obtuses:83 steiners:171
The triangle is infinite 
pn:0 obtuses:83 steiners:172
The triangle is infinite 
pn:-2.09093 obtuses:82 steiners:173
pn:0 obtuses:82 steiners:174
The triangle is infinite 
pn:0 obtuses:82 steiners:175
pn:0 obtuses:82 steiners:176
The triangle is infinite 
pn:0 obtuses:82 steiners:177
The triangle is infinite 
The triangle is infinite 
pn:4.2773 obtuses:84 steiners:178
pn:0 obtuses:84 steiners:179
The triangle is infinite 
pn:0 obtuses:84 steiners:180
pn:0 obtuses:84 steiners:181
The triangle is infinite 
pn:0 obtuses:84 steiners:182
Warning: The Steiner point is too close to an existing point and will not be inserted.
The triangle is infinite 
pn:-2.18565 obtuses:83 steiners:183
pn:0 obtuses:83 steiners:184
pn:0 obtuses:83 steiners:185
The triangle is infinite 
pn:0 obtuses:83 steiners:186
pn:0 obtuses:83 steiners:187
pn:0 obtuses:83 steiners:188
pn:0 obtuses:83 steiners:189
pn:0 obtuses:83 steiners:190
pn:0 obtuses:83 steiners:191
pn:0 obtuses:83 steiners:192
pn:0 obtuses:83 steiners:193
pn:0 obtuses:83 steiners:194
pn:4.63116 obtuses:85 steiners:195
pn:0 obtuses:85 steiners:196
pn:4.56996 obtuses:87 steiners:197
Μέσος ρυθμός σύγκλισης: 0.172863
Ενέργεια τριγωνοποίσης που δεν συγκλίνει: 418.6
Method: Ant Colony: 
	Original CDT had: 73/110 obtuse faces
	We inserted 197 steiner points:
		Middle of largest edge: 7
		Circumcenter: 12
		Projection: 178
		Polygon Cnetroid: 0
Final obtuse faces: 87/492
Αρχικές αμβλείες: 73
Τελικές αμβλείες: 87

Αρχικά faces: 110
Τελικές faces: 492

Αρχική ενέργεια: 219
Τελική ενέργεια: 418.6

-19.1781% αύξηση αμβλείων
