Input file: .vscode/temp_5_ant.json
Output file: .vscode/output_5_ant.json
point-set_80_1675b331
80

POINTS_X
18 ,54 ,47 ,9 ,2 ,63 ,18 ,18 ,47 ,61 ,25 ,20 ,53 ,61 ,43 ,51 ,47 ,44 ,9 ,51 ,40 ,6 ,55 ,30 ,35 ,33 ,53 ,28 ,62 ,43 ,3 ,4 ,23 ,16 ,13 ,21 ,39 ,22 ,16 ,13 ,33 ,34 ,53 ,22 ,20 ,28 ,38 ,35 ,35 ,63 ,24 ,28 ,33 ,15 ,26 ,43 ,8 ,13 ,10 ,48 ,63 ,18 ,59 ,0 ,51 ,58 ,53 ,4 ,13 ,29 ,54 ,14 ,11 ,55 ,0 ,17 ,3 ,42 ,39 ,25 ,
POINTS_Y
47 ,36 ,55 ,11 ,15 ,52 ,23 ,17 ,39 ,62 ,40 ,24 ,2 ,20 ,7 ,49 ,8 ,10 ,28 ,9 ,4 ,53 ,45 ,9 ,28 ,37 ,51 ,22 ,39 ,62 ,27 ,65 ,27 ,21 ,7 ,0 ,34 ,9 ,15 ,74 ,32 ,23 ,17 ,55 ,19 ,57 ,22 ,53 ,44 ,32 ,32 ,2 ,14 ,31 ,15 ,27 ,17 ,57 ,21 ,32 ,17 ,62 ,49 ,57 ,40 ,9 ,42 ,35 ,44 ,64 ,34 ,19 ,49 ,26 ,45 ,18 ,2 ,14 ,46 ,66 ,
REGION_BOUND
74 ,4 ,76 ,35 ,12 ,65 ,60 ,5 ,9 ,39 ,31 ,63 ,
NUM CONSTRAINTS
0

ADDITIONAL CONSTRAINTS

METHOD: ant

PARAMETERS:
L: 200, alpha: 3, beta: 0.8, kappa: 8, lambda: 0.5, psi: 3, xi: 1, 
DELAUNAY: true
Α. ΚΥΡΤΟ ΠΕΡΙΒΛΗΜΑ ΧΩΡΙΣ ΠΕΡΙΟΡΙΣΜΟΥΣ
pn:0.0880916 obtuses:57 steiners:3
Warning: The Steiner point is too close to an existing point and will not be inserted.
pn:-0.0615248 obtuses:56 steiners:4
pn:0 obtuses:56 steiners:5
pn:0.0970789 obtuses:57 steiners:6
pn:0 obtuses:57 steiners:7
Warning: The Steiner point is too close to an existing point and will not be inserted.
pn:0 obtuses:57 steiners:8
pn:-0.150273 obtuses:56 steiners:9
Warning: The Steiner point is too close to an existing point and will not be inserted.
pn:0 obtuses:56 steiners:10
pn:0 obtuses:56 steiners:11
pn:0.203417 obtuses:57 steiners:12
pn:0 obtuses:57 steiners:13
pn:-0.238835 obtuses:56 steiners:14
pn:0.508622 obtuses:58 steiners:15
pn:0 obtuses:58 steiners:16
pn:0 obtuses:58 steiners:17
pn:0 obtuses:58 steiners:18
pn:0 obtuses:58 steiners:19
pn:0.333268 obtuses:59 steiners:20
pn:0 obtuses:59 steiners:21
pn:0 obtuses:59 steiners:22
pn:0 obtuses:59 steiners:23
pn:-0.401659 obtuses:58 steiners:24
pn:0 obtuses:58 steiners:25
pn:0 obtuses:58 steiners:26
pn:0 obtuses:58 steiners:27
Warning: The Steiner point is too close to an existing point and will not be inserted.
pn:0.93219 obtuses:60 steiners:28
pn:0 obtuses:60 steiners:29
pn:0 obtuses:60 steiners:30
pn:0 obtuses:60 steiners:31
pn:-0.52938 obtuses:59 steiners:32
pn:0 obtuses:59 steiners:33
pn:0 obtuses:59 steiners:34
pn:0 obtuses:59 steiners:35
pn:0 obtuses:59 steiners:36
pn:1.2167 obtuses:61 steiners:37
pn:0.609733 obtuses:62 steiners:38
pn:0 obtuses:62 steiners:39
pn:0 obtuses:62 steiners:40
pn:0.647981 obtuses:63 steiners:41
pn:0 obtuses:63 steiners:42
pn:0 obtuses:63 steiners:43
pn:0 obtuses:63 steiners:44
pn:0 obtuses:63 steiners:45
pn:0 obtuses:63 steiners:46
pn:1.45319 obtuses:65 steiners:47
pn:0 obtuses:65 steiners:48
pn:0 obtuses:65 steiners:49
pn:0 obtuses:65 steiners:50
pn:0 obtuses:65 steiners:51
pn:0 obtuses:65 steiners:52
pn:0 obtuses:65 steiners:53
pn:0 obtuses:65 steiners:54
pn:0 obtuses:65 steiners:55
pn:0 obtuses:65 steiners:56
pn:-0.875964 obtuses:64 steiners:57
pn:0 obtuses:64 steiners:58
pn:0 obtuses:64 steiners:59
pn:1.83087 obtuses:66 steiners:60
pn:0 obtuses:66 steiners:61
pn:1.83592 obtuses:68 steiners:62
Warning: The Steiner point is too close to an existing point and will not be inserted.
pn:0 obtuses:68 steiners:63
pn:0 obtuses:68 steiners:64
pn:0 obtuses:68 steiners:65
pn:0 obtuses:68 steiners:66
pn:0 obtuses:68 steiners:67
pn:0 obtuses:68 steiners:68
pn:0 obtuses:68 steiners:69
Warning: The Steiner point is too close to an existing point and will not be inserted.
pn:0 obtuses:68 steiners:70
pn:0 obtuses:68 steiners:71
pn:0 obtuses:68 steiners:72
pn:0 obtuses:68 steiners:73
pn:0 obtuses:68 steiners:74
pn:0 obtuses:68 steiners:75
pn:1.10219 obtuses:69 steiners:76
pn:0 obtuses:69 steiners:77
pn:0 obtuses:69 steiners:78
Warning: The Steiner point is too close to an existing point and will not be inserted.
pn:0 obtuses:69 steiners:79
pn:0 obtuses:69 steiners:80
Warning: The Steiner point is too close to an existing point and will not be inserted.
pn:1.15828 obtuses:70 steiners:81
pn:0 obtuses:70 steiners:82
pn:0 obtuses:70 steiners:83
pn:0 obtuses:70 steiners:84
pn:0 obtuses:70 steiners:85
pn:2.40858 obtuses:72 steiners:86
pn:0 obtuses:72 steiners:87
Warning: The Steiner point is too close to an existing point and will not be inserted.
pn:0 obtuses:72 steiners:88
pn:-1.23777 obtuses:71 steiners:89
pn:2.48625 obtuses:73 steiners:90
Warning: The Steiner point is too close to an existing point and will not be inserted.
pn:0 obtuses:73 steiners:91
pn:-1.26208 obtuses:72 steiners:92
pn:0 obtuses:72 steiners:93
pn:0 obtuses:72 steiners:94
pn:1.30346 obtuses:73 steiners:95
pn:0 obtuses:73 steiners:96
pn:0 obtuses:73 steiners:97
pn:0 obtuses:73 steiners:98
pn:-1.35863 obtuses:72 steiners:99
pn:1.37242 obtuses:73 steiners:100
pn:0 obtuses:73 steiners:101
pn:0 obtuses:73 steiners:102
pn:0 obtuses:73 steiners:103
pn:0 obtuses:73 steiners:104
pn:0 obtuses:73 steiners:105
Warning: The Steiner point is too close to an existing point and will not be inserted.
pn:0 obtuses:73 steiners:106
pn:0 obtuses:73 steiners:107
pn:0 obtuses:73 steiners:108
pn:0 obtuses:73 steiners:109
pn:0 obtuses:73 steiners:110
pn:2.98665 obtuses:75 steiners:111
pn:0 obtuses:75 steiners:112
pn:0 obtuses:75 steiners:113
pn:1.50332 obtuses:76 steiners:114
pn:2.97417 obtuses:78 steiners:115
pn:-1.49033 obtuses:77 steiners:116
pn:0 obtuses:77 steiners:117
pn:0 obtuses:77 steiners:118
pn:-1.54903 obtuses:76 steiners:119
pn:1.5621 obtuses:77 steiners:120
pn:1.55485 obtuses:78 steiners:121
pn:0 obtuses:78 steiners:122
pn:0 obtuses:78 steiners:123
pn:0 obtuses:78 steiners:124
pn:0 obtuses:78 steiners:125
pn:0 obtuses:78 steiners:126
pn:3.20269 obtuses:80 steiners:127
pn:-1.60379 obtuses:79 steiners:128
pn:0 obtuses:79 steiners:129
pn:0 obtuses:79 steiners:130
pn:0 obtuses:79 steiners:131
pn:0 obtuses:79 steiners:132
pn:0 obtuses:79 steiners:133
Warning: The Steiner point is too close to an existing point and will not be inserted.
pn:0 obtuses:79 steiners:134
pn:0 obtuses:79 steiners:135
pn:0 obtuses:79 steiners:136
pn:0 obtuses:79 steiners:137
pn:0 obtuses:79 steiners:138
pn:0 obtuses:79 steiners:139
pn:0 obtuses:79 steiners:140
pn:-1.78983 obtuses:78 steiners:141
pn:3.58245 obtuses:80 steiners:142
pn:0 obtuses:80 steiners:143
pn:3.54338 obtuses:82 steiners:144
pn:0 obtuses:82 steiners:145
pn:0 obtuses:82 steiners:146
pn:0 obtuses:82 steiners:147
pn:1.78789 obtuses:83 steiners:148
Warning: The Steiner point is too close to an existing point and will not be inserted.
pn:0 obtuses:83 steiners:149
pn:0 obtuses:83 steiners:150
pn:0 obtuses:83 steiners:151
pn:0 obtuses:83 steiners:152
Warning: The Steiner point is too close to an existing point and will not be inserted.
pn:0 obtuses:83 steiners:153
pn:1.83834 obtuses:84 steiners:154
pn:-1.85032 obtuses:83 steiners:155
pn:0 obtuses:83 steiners:156
pn:0 obtuses:83 steiners:157
pn:0 obtuses:83 steiners:158
pn:-1.92123 obtuses:82 steiners:159
pn:3.84355 obtuses:84 steiners:160
pn:0 obtuses:84 steiners:161
pn:0 obtuses:84 steiners:162
pn:0 obtuses:84 steiners:163
pn:1.93493 obtuses:85 steiners:164
pn:0 obtuses:85 steiners:165
pn:0 obtuses:85 steiners:166
pn:0 obtuses:85 steiners:167
pn:0 obtuses:85 steiners:168
pn:0 obtuses:85 steiners:169
pn:-2.00593 obtuses:84 steiners:170
pn:0 obtuses:84 steiners:171
pn:0 obtuses:84 steiners:172
pn:0 obtuses:84 steiners:173
pn:0 obtuses:84 steiners:174
pn:0 obtuses:84 steiners:175
pn:0 obtuses:84 steiners:176
pn:0 obtuses:84 steiners:177
pn:0 obtuses:84 steiners:178
pn:0 obtuses:84 steiners:179
pn:0 obtuses:84 steiners:180
pn:4.24724 obtuses:86 steiners:181
pn:0 obtuses:86 steiners:182
pn:-2.13452 obtuses:85 steiners:183
pn:0 obtuses:85 steiners:184
pn:0 obtuses:85 steiners:185
pn:0 obtuses:85 steiners:186
pn:2.18131 obtuses:86 steiners:187
pn:0 obtuses:86 steiners:188
pn:0 obtuses:86 steiners:189
pn:-2.21639 obtuses:85 steiners:190
pn:2.22809 obtuses:86 steiners:191
pn:0 obtuses:86 steiners:192
pn:0 obtuses:86 steiners:193
Warning: The Steiner point is too close to an existing point and will not be inserted.
pn:4.44846 obtuses:88 steiners:194
pn:0 obtuses:88 steiners:195
Ενέργεια τριγωνοποίσης που δεν συγκλίνει: 420
Method: Ant Colony: 
	Original CDT had: 54/145 obtuse faces
	We inserted 195 steiner points:
		Middle of largest edge: 27
		Circumcenter: 15
		Projection: 153
		Polygon Cnetroid: 0
Final obtuse faces: 88/519
Αρχικές αμβλείες: 54
Τελικές αμβλείες: 88

Αρχικά faces: 145
Τελικές faces: 519

Αρχική ενέργεια: 162
Τελική ενέργεια: 420

-62.963% αύξηση αμβλείων
