Input file: .vscode/temp_4_ant.json
Output file: .vscode/output_4_ant.json
simple-polygon_80_7b8f6c4c
80

POINTS_X
8250 ,8050 ,7850 ,7650 ,8250 ,7850 ,7850 ,7650 ,7850 ,7650 ,7850 ,8050 ,8250 ,7850 ,7650 ,8050 ,8250 ,8250 ,8250 ,7850 ,7650 ,7850 ,8050 ,8250 ,8250 ,7850 ,7650 ,7850 ,8050 ,8250 ,8050 ,7850 ,7850 ,7650 ,600 ,600 ,0 ,200 ,200 ,200 ,400 ,600 ,600 ,400 ,200 ,200 ,200 ,200 ,400 ,600 ,400 ,0 ,200 ,0 ,200 ,200 ,200 ,400 ,200 ,200 ,400 ,600 ,600 ,600 ,600 ,600 ,600 ,600 ,400 ,600 ,600 ,7850 ,7850 ,7850 ,7850 ,8250 ,8250 ,8250 ,8250 ,8250 ,
POINTS_Y
1700 ,1700 ,1500 ,1700 ,2300 ,2300 ,2500 ,2500 ,3100 ,3300 ,3300 ,3300 ,3300 ,4000 ,4200 ,4200 ,4000 ,4200 ,4900 ,4900 ,5100 ,5100 ,5100 ,5100 ,5750 ,5800 ,6000 ,6000 ,5950 ,6600 ,6800 ,6800 ,6600 ,6800 ,6600 ,6800 ,6800 ,6600 ,6000 ,5800 ,5950 ,5950 ,5750 ,5100 ,5100 ,4900 ,4200 ,4000 ,4200 ,4000 ,3300 ,3300 ,3100 ,2500 ,2500 ,2300 ,1700 ,900 ,750 ,200 ,200 ,0 ,700 ,900 ,1500 ,1700 ,2300 ,2500 ,2500 ,3100 ,3300 ,950 ,750 ,200 ,0 ,0 ,200 ,700 ,900 ,1500 ,
REGION_BOUND
0 ,1 ,2 ,3 ,4 ,5 ,6 ,7 ,8 ,9 ,10 ,11 ,12 ,13 ,14 ,15 ,16 ,17 ,18 ,19 ,20 ,21 ,22 ,23 ,24 ,25 ,26 ,27 ,28 ,29 ,30 ,31 ,32 ,33 ,34 ,35 ,36 ,37 ,38 ,39 ,40 ,41 ,42 ,43 ,44 ,45 ,46 ,47 ,48 ,49 ,50 ,51 ,52 ,53 ,54 ,55 ,56 ,57 ,58 ,59 ,60 ,61 ,62 ,63 ,64 ,65 ,66 ,67 ,68 ,69 ,70 ,71 ,72 ,73 ,74 ,75 ,76 ,77 ,78 ,79 ,
NUM CONSTRAINTS
0

ADDITIONAL CONSTRAINTS

METHOD: ant

PARAMETERS:
L: 200, alpha: 3, beta: 0.8, kappa: 8, lambda: 0.5, psi: 3, xi: 1, 
DELAUNAY: true
Ε. Μη κυρτό boundary, ακανόνιστο, που δεν εντάσσεται στις κατηγορίες Α-Δ. 
pn:0 obtuses:45 steiners:3
The triangle is infinite 
pn:0 obtuses:45 steiners:4
pn:0 obtuses:45 steiners:5
The triangle is infinite 
pn:-0.123259 obtuses:44 steiners:6
pn:0 obtuses:44 steiners:7
pn:0 obtuses:44 steiners:8
pn:0 obtuses:44 steiners:9
pn:0 obtuses:44 steiners:10
pn:0 obtuses:44 steiners:11
pn:0 obtuses:44 steiners:12
pn:0 obtuses:44 steiners:13
pn:0 obtuses:44 steiners:14
pn:0 obtuses:44 steiners:15
pn:0 obtuses:44 steiners:16
The triangle is infinite 
pn:0 obtuses:44 steiners:17
pn:0 obtuses:44 steiners:18
pn:0 obtuses:44 steiners:19
pn:0.438125 obtuses:45 steiners:20
pn:0 obtuses:45 steiners:21
pn:0 obtuses:45 steiners:22
pn:0 obtuses:45 steiners:23
pn:0 obtuses:45 steiners:24
pn:0 obtuses:45 steiners:25
The triangle is infinite 
pn:0 obtuses:45 steiners:26
pn:0 obtuses:45 steiners:27
The triangle is infinite 
pn:0 obtuses:45 steiners:28
pn:0 obtuses:45 steiners:29
pn:0 obtuses:45 steiners:30
pn:0 obtuses:45 steiners:31
pn:0 obtuses:45 steiners:32
pn:0 obtuses:45 steiners:33
pn:0 obtuses:45 steiners:34
pn:0 obtuses:45 steiners:35
pn:0 obtuses:45 steiners:36
The triangle is infinite 
The triangle is infinite 
pn:0 obtuses:45 steiners:37
The triangle is infinite 
The triangle is infinite 
pn:0.82416 obtuses:46 steiners:38
The triangle is infinite 
The triangle is infinite 
pn:0 obtuses:46 steiners:39
The triangle is infinite 
pn:0 obtuses:46 steiners:40
The triangle is infinite 
The triangle is infinite 
pn:0.870957 obtuses:47 steiners:41
The triangle is infinite 
pn:1.72933 obtuses:49 steiners:42
The triangle is infinite 
The triangle is infinite 
pn:0 obtuses:49 steiners:43
The triangle is infinite 
pn:1.74016 obtuses:51 steiners:44
The triangle is infinite 
The triangle is infinite 
pn:0 obtuses:51 steiners:45
pn:0 obtuses:51 steiners:46
The triangle is infinite 
The triangle is infinite 
pn:0 obtuses:51 steiners:47
pn:0 obtuses:51 steiners:48
The triangle is infinite 
The triangle is infinite 
pn:0 obtuses:51 steiners:49
pn:1.90402 obtuses:53 steiners:50
The triangle is infinite 
The triangle is infinite 
pn:0 obtuses:53 steiners:51
pn:0 obtuses:53 steiners:52
The triangle is infinite 
The triangle is infinite 
pn:0 obtuses:53 steiners:53
pn:0 obtuses:53 steiners:54
The triangle is infinite 
The triangle is infinite 
pn:0 obtuses:53 steiners:55
pn:0 obtuses:53 steiners:56
The triangle is infinite 
The triangle is infinite 
pn:0 obtuses:53 steiners:57
pn:2.12982 obtuses:55 steiners:58
The triangle is infinite 
pn:0 obtuses:55 steiners:59
pn:0 obtuses:55 steiners:60
pn:1.09009 obtuses:56 steiners:61
pn:0 obtuses:56 steiners:62
pn:0 obtuses:56 steiners:63
pn:0 obtuses:56 steiners:64
pn:0 obtuses:56 steiners:65
pn:0 obtuses:56 steiners:66
pn:0 obtuses:56 steiners:67
pn:0 obtuses:56 steiners:68
pn:2.40371 obtuses:58 steiners:69
pn:0 obtuses:58 steiners:70
pn:0 obtuses:58 steiners:71
pn:0 obtuses:58 steiners:72
pn:2.45782 obtuses:60 steiners:73
pn:0 obtuses:60 steiners:74
pn:0 obtuses:60 steiners:75
pn:0 obtuses:60 steiners:76
pn:0 obtuses:60 steiners:77
pn:2.54118 obtuses:62 steiners:78
pn:0 obtuses:62 steiners:79
pn:0 obtuses:62 steiners:80
pn:0 obtuses:62 steiners:81
pn:0 obtuses:62 steiners:82
pn:0 obtuses:62 steiners:83
pn:1.33601 obtuses:63 steiners:84
pn:0 obtuses:63 steiners:85
pn:0 obtuses:63 steiners:86
pn:0 obtuses:63 steiners:87
pn:0 obtuses:63 steiners:88
pn:0 obtuses:63 steiners:89
pn:0 obtuses:63 steiners:90
pn:0 obtuses:63 steiners:91
pn:0 obtuses:63 steiners:92
pn:0 obtuses:63 steiners:93
pn:0 obtuses:63 steiners:94
The triangle is infinite 
pn:2.95334 obtuses:65 steiners:95
pn:0 obtuses:65 steiners:96
pn:2.92444 obtuses:67 steiners:97
pn:2.86783 obtuses:69 steiners:98
The triangle is infinite 
pn:0 obtuses:69 steiners:99
pn:1.43167 obtuses:70 steiners:100
pn:1.42554 obtuses:71 steiners:101
pn:0 obtuses:71 steiners:102
pn:0 obtuses:71 steiners:103
pn:0 obtuses:71 steiners:104
pn:0 obtuses:71 steiners:105
pn:0 obtuses:71 steiners:106
pn:0 obtuses:71 steiners:107
The triangle is infinite 
pn:2.98628 obtuses:73 steiners:108
The triangle is infinite 
pn:0 obtuses:73 steiners:109
pn:0 obtuses:73 steiners:110
The triangle is infinite 
pn:1.50341 obtuses:74 steiners:111
pn:0 obtuses:74 steiners:112
pn:0 obtuses:74 steiners:113
pn:3.02683 obtuses:76 steiners:114
pn:0 obtuses:76 steiners:115
pn:3.00015 obtuses:78 steiners:116
The triangle is infinite 
pn:0 obtuses:78 steiners:117
pn:0 obtuses:78 steiners:118
pn:0 obtuses:78 steiners:119
pn:0 obtuses:78 steiners:120
pn:0 obtuses:78 steiners:121
The triangle is infinite 
pn:-1.56775 obtuses:77 steiners:122
pn:0 obtuses:77 steiners:123
pn:0 obtuses:77 steiners:124
The triangle is infinite 
pn:0 obtuses:77 steiners:125
pn:0 obtuses:77 steiners:126
pn:0 obtuses:77 steiners:127
The triangle is infinite 
pn:0 obtuses:77 steiners:128
pn:0 obtuses:77 steiners:129
pn:0 obtuses:77 steiners:130
pn:0 obtuses:77 steiners:131
pn:0 obtuses:77 steiners:132
pn:0 obtuses:77 steiners:133
pn:3.42325 obtuses:79 steiners:134
pn:0 obtuses:79 steiners:135
The triangle is infinite 
pn:0 obtuses:79 steiners:136
pn:0 obtuses:79 steiners:137
pn:0 obtuses:79 steiners:138
The triangle is infinite 
pn:1.74215 obtuses:80 steiners:139
pn:0 obtuses:80 steiners:140
The triangle is infinite 
pn:0 obtuses:80 steiners:141
pn:0 obtuses:80 steiners:142
The triangle is infinite 
pn:0 obtuses:80 steiners:143
pn:0 obtuses:80 steiners:144
pn:3.56807 obtuses:82 steiners:145
The triangle is infinite 
The triangle is infinite 
pn:0 obtuses:82 steiners:146
pn:0 obtuses:82 steiners:147
The triangle is infinite 
The triangle is infinite 
pn:0 obtuses:82 steiners:148
The triangle is infinite 
pn:0 obtuses:82 steiners:149
The triangle is infinite 
The triangle is infinite 
pn:0 obtuses:82 steiners:150
pn:0 obtuses:82 steiners:151
The triangle is infinite 
The triangle is infinite 
pn:1.83638 obtuses:83 steiners:152
The triangle is infinite 
pn:0 obtuses:83 steiners:153
The triangle is infinite 
pn:0 obtuses:83 steiners:154
pn:0 obtuses:83 steiners:155
The triangle is infinite 
The triangle is infinite 
pn:3.70254 obtuses:85 steiners:156
pn:0 obtuses:85 steiners:157
pn:0 obtuses:85 steiners:158
pn:3.6862 obtuses:87 steiners:159
pn:0 obtuses:87 steiners:160
pn:0 obtuses:87 steiners:161
pn:0 obtuses:87 steiners:162
pn:0 obtuses:87 steiners:163
The triangle is infinite 
pn:0 obtuses:87 steiners:164
pn:0 obtuses:87 steiners:165
The triangle is infinite 
pn:1.89144 obtuses:88 steiners:166
pn:0 obtuses:88 steiners:167
pn:0 obtuses:88 steiners:168
pn:0 obtuses:88 steiners:169
pn:0 obtuses:88 steiners:170
pn:0 obtuses:88 steiners:171
pn:0 obtuses:88 steiners:172
pn:0 obtuses:88 steiners:173
pn:0 obtuses:88 steiners:174
pn:0 obtuses:88 steiners:175
pn:0 obtuses:88 steiners:176
pn:0 obtuses:88 steiners:177
The triangle is infinite 
pn:0 obtuses:88 steiners:178
pn:0 obtuses:88 steiners:179
pn:0 obtuses:88 steiners:180
pn:0 obtuses:88 steiners:181
pn:0 obtuses:88 steiners:182
pn:0 obtuses:88 steiners:183
pn:0 obtuses:88 steiners:184
pn:0 obtuses:88 steiners:185
pn:4.1687 obtuses:90 steiners:186
pn:0 obtuses:90 steiners:187
The triangle is infinite 
pn:0 obtuses:90 steiners:188
pn:0 obtuses:90 steiners:189
pn:0 obtuses:90 steiners:190
The triangle is infinite 
pn:0 obtuses:90 steiners:191
pn:0 obtuses:90 steiners:192
The triangle is infinite 
pn:0 obtuses:90 steiners:193
pn:4.25291 obtuses:92 steiners:194
pn:6.24116 obtuses:95 steiners:195
pn:0 obtuses:95 steiners:196
pn:0 obtuses:95 steiners:197
pn:0 obtuses:95 steiners:198
Ενέργεια τριγωνοποίσης που δεν συγκλίνει: 443.4
Method: Ant Colony: 
	Original CDT had: 46/134 obtuse faces
	We inserted 198 steiner points:
		Middle of largest edge: 25
		Circumcenter: 9
		Projection: 164
		Polygon Cnetroid: 0
Final obtuse faces: 95/524
Αρχικές αμβλείες: 46
Τελικές αμβλείες: 95

Αρχικά faces: 134
Τελικές faces: 524

Αρχική ενέργεια: 138
Τελική ενέργεια: 443.4

-106.522% αύξηση αμβλείων
