Input file: .vscode/temp_5_ant.json
Output file: .vscode/output_5_ant.json
simple-polygon_100_cb23308c
100

POINTS_X
14975 ,14775 ,14675 ,12225 ,12225 ,12075 ,12075 ,12075 ,12075 ,11500 ,10850 ,10850 ,10900 ,11800 ,12100 ,12425 ,12425 ,11700 ,11500 ,8425 ,8225 ,8125 ,8675 ,8675 ,8675 ,8675 ,8675 ,8675 ,8675 ,8675 ,8675 ,8525 ,8425 ,5550 ,5525 ,5675 ,5675 ,5525 ,5525 ,5150 ,4950 ,4300 ,4300 ,5875 ,5875 ,5875 ,5150 ,4300 ,4300 ,4300 ,4500 ,4950 ,5250 ,5525 ,5525 ,5525 ,5675 ,5675 ,5550 ,5875 ,8675 ,8675 ,8675 ,8675 ,8675 ,8675 ,8675 ,10850 ,10850 ,10850 ,10850 ,10900 ,11500 ,12075 ,12075 ,12075 ,12225 ,12100 ,12425 ,12425 ,12425 ,15225 ,15225 ,15225 ,15225 ,15225 ,15225 ,15225 ,15075 ,14775 ,14675 ,15225 ,15225 ,15225 ,15225 ,15225 ,15225 ,15225 ,15225 ,15075 ,
POINTS_Y
10150 ,10150 ,10150 ,9375 ,9275 ,9125 ,9225 ,9425 ,9525 ,10600 ,9400 ,9175 ,8875 ,8875 ,8875 ,6925 ,6775 ,6150 ,6150 ,5700 ,5700 ,5700 ,7700 ,7800 ,7900 ,8000 ,8100 ,8200 ,8300 ,8400 ,8500 ,10150 ,10150 ,8875 ,9225 ,9275 ,9375 ,9425 ,9525 ,10600 ,10600 ,9400 ,9175 ,7075 ,6925 ,6775 ,6150 ,5050 ,4950 ,4725 ,4425 ,4425 ,4425 ,4775 ,4975 ,5075 ,4925 ,4825 ,4425 ,2625 ,3350 ,3450 ,3550 ,3650 ,3750 ,3850 ,4050 ,5050 ,4950 ,4825 ,4725 ,4425 ,4425 ,4675 ,4775 ,5075 ,4825 ,4425 ,2775 ,2625 ,2475 ,3150 ,3450 ,3550 ,3650 ,3750 ,3850 ,4050 ,5700 ,5700 ,5700 ,7600 ,7900 ,8000 ,8100 ,8200 ,8300 ,8400 ,8500 ,10150 ,
REGION_BOUND
0 ,1 ,2 ,3 ,4 ,5 ,6 ,7 ,8 ,9 ,10 ,11 ,12 ,13 ,14 ,15 ,16 ,17 ,18 ,19 ,20 ,21 ,22 ,23 ,24 ,25 ,26 ,27 ,28 ,29 ,30 ,31 ,32 ,33 ,34 ,35 ,36 ,37 ,38 ,39 ,40 ,41 ,42 ,43 ,44 ,45 ,46 ,47 ,48 ,49 ,50 ,51 ,52 ,53 ,54 ,55 ,56 ,57 ,58 ,59 ,60 ,61 ,62 ,63 ,64 ,65 ,66 ,67 ,68 ,69 ,70 ,71 ,72 ,73 ,74 ,75 ,76 ,77 ,78 ,79 ,80 ,81 ,82 ,83 ,84 ,85 ,86 ,87 ,88 ,89 ,90 ,91 ,92 ,93 ,94 ,95 ,96 ,97 ,98 ,99 ,
NUM CONSTRAINTS
0

ADDITIONAL CONSTRAINTS

METHOD: ant

PARAMETERS:
L: 100, alpha: 2, beta: 0.5, kappa: 10, lambda: 0.5, psi: 3, xi: 1, 
DELAUNAY: true
Αρχικές αμβλείες: 139
Αρχικά faces: 171
Ε. Μη κυρτό boundary, ακανόνιστο, που δεν εντάσσεται στις κατηγορίες Α-Δ. 
pn:0 obtuses:139 steiners:3
pn:0 obtuses:139 steiners:4
pn:0 obtuses:139 steiners:5
pn:0.0783558 obtuses:141 steiners:6
pn:0.0913699 obtuses:143 steiners:7
pn:0.104014 obtuses:145 steiners:8
pn:0 obtuses:145 steiners:9
pn:0 obtuses:145 steiners:10
pn:0 obtuses:145 steiners:11
pn:0 obtuses:145 steiners:12
pn:0 obtuses:145 steiners:13
pn:0 obtuses:145 steiners:14
pn:0.296821 obtuses:148 steiners:15
pn:0 obtuses:148 steiners:16
pn:0 obtuses:148 steiners:17
pn:0 obtuses:148 steiners:18
pn:0 obtuses:148 steiners:19
pn:0 obtuses:148 steiners:20
pn:0.275117 obtuses:150 steiners:21
pn:0.284721 obtuses:152 steiners:22
pn:0.294073 obtuses:154 steiners:23
pn:-0.153072 obtuses:153 steiners:24
pn:0 obtuses:153 steiners:25
pn:0 obtuses:153 steiners:26
pn:0 obtuses:153 steiners:27
pn:0.357109 obtuses:155 steiners:28
pn:0.365352 obtuses:157 steiners:29
pn:0.373387 obtuses:159 steiners:30
pn:0.191206 obtuses:160 steiners:31
pn:0 obtuses:160 steiners:32
pn:0 obtuses:160 steiners:33
pn:0 obtuses:160 steiners:34
pn:0 obtuses:160 steiners:35
pn:0 obtuses:160 steiners:36
pn:0 obtuses:160 steiners:37
pn:0 obtuses:160 steiners:38
pn:0 obtuses:160 steiners:39
pn:0 obtuses:160 steiners:40
pn:0 obtuses:160 steiners:41
pn:0.51551 obtuses:162 steiners:42
pn:0.521455 obtuses:164 steiners:43
pn:0.527256 obtuses:166 steiners:44
pn:0.797003 obtuses:169 steiners:45
pn:0 obtuses:169 steiners:46
pn:0 obtuses:169 steiners:47
pn:0 obtuses:169 steiners:48
pn:0 obtuses:169 steiners:49
pn:0 obtuses:169 steiners:50
pn:0.594105 obtuses:171 steiners:51
pn:0 obtuses:171 steiners:52
pn:0 obtuses:171 steiners:53
pn:0 obtuses:171 steiners:54
pn:0 obtuses:171 steiners:55
pn:0 obtuses:171 steiners:56
pn:0 obtuses:171 steiners:57
pn:0 obtuses:171 steiners:58
pn:0 obtuses:171 steiners:59
pn:0 obtuses:171 steiners:60
pn:0 obtuses:171 steiners:61
pn:0 obtuses:171 steiners:62
pn:0 obtuses:171 steiners:63
pn:0 obtuses:171 steiners:64
pn:0 obtuses:171 steiners:65
pn:0.381918 obtuses:172 steiners:66
pn:0.76878 obtuses:174 steiners:67
pn:0 obtuses:174 steiners:68
pn:0 obtuses:174 steiners:69
pn:0 obtuses:174 steiners:70
pn:0 obtuses:174 steiners:71
pn:0.817138 obtuses:176 steiners:72
pn:0.819205 obtuses:178 steiners:73
pn:1.22842 obtuses:181 steiners:74
pn:-0.412737 obtuses:180 steiners:75
pn:0 obtuses:180 steiners:76
pn:0 obtuses:180 steiners:77
pn:0 obtuses:180 steiners:78
pn:0.8674 obtuses:182 steiners:79
pn:0.86885 obtuses:184 steiners:80
pn:0 obtuses:184 steiners:81
pn:0 obtuses:184 steiners:82
pn:0 obtuses:184 steiners:83
pn:0 obtuses:184 steiners:84
pn:0.913512 obtuses:186 steiners:85
pn:0.914437 obtuses:188 steiners:86
pn:0.915342 obtuses:190 steiners:87
pn:0 obtuses:190 steiners:88
pn:0 obtuses:190 steiners:89
pn:0 obtuses:190 steiners:90
pn:0 obtuses:190 steiners:91
pn:0 obtuses:190 steiners:92
pn:0.968586 obtuses:192 steiners:93
pn:0 obtuses:192 steiners:94
pn:0 obtuses:192 steiners:95
pn:0 obtuses:192 steiners:96
pn:0 obtuses:192 steiners:97
pn:0 obtuses:192 steiners:98
pn:1.02073 obtuses:194 steiners:99
pn:1.02051 obtuses:196 steiners:100
pn:0 obtuses:196 steiners:101
pn:0 obtuses:196 steiners:102
pn:0 obtuses:196 steiners:103
pn:1.05076 obtuses:198 steiners:104
pn:0 obtuses:198 steiners:105
pn:0 obtuses:198 steiners:106
pn:0 obtuses:198 steiners:107
pn:0 obtuses:198 steiners:108
pn:0 obtuses:198 steiners:109
pn:0 obtuses:198 steiners:110
pn:0 obtuses:198 steiners:111
pn:-0.564554 obtuses:197 steiners:112
pn:0 obtuses:197 steiners:113
pn:0 obtuses:197 steiners:114
pn:0 obtuses:197 steiners:115
pn:0 obtuses:197 steiners:116
pn:0 obtuses:197 steiners:117
pn:1.18687 obtuses:199 steiners:118
pn:0 obtuses:199 steiners:119
pn:0 obtuses:199 steiners:120
pn:1.205 obtuses:201 steiners:121
pn:1.20297 obtuses:203 steiners:122
pn:-0.604936 obtuses:202 steiners:123
pn:0 obtuses:202 steiners:124
pn:0 obtuses:202 steiners:125
pn:0 obtuses:202 steiners:126
pn:1.24631 obtuses:204 steiners:127
pn:1.24391 obtuses:206 steiners:128
pn:-0.625302 obtuses:205 steiners:129
pn:0 obtuses:205 steiners:130
pn:0 obtuses:205 steiners:131
pn:0 obtuses:205 steiners:132
pn:0 obtuses:205 steiners:133
pn:0 obtuses:205 steiners:134
pn:-0.6577 obtuses:204 steiners:135
pn:0.66259 obtuses:205 steiners:136
pn:1.32525 obtuses:207 steiners:137
pn:1.97844 obtuses:210 steiners:138
The triangle is infinite 
pn:0 obtuses:210 steiners:139
pn:0 obtuses:210 steiners:140
pn:1.33176 obtuses:212 steiners:141
The triangle is infinite 
pn:0 obtuses:212 steiners:142
pn:1.33803 obtuses:214 steiners:143
pn:1.9977 obtuses:217 steiners:144
pn:0 obtuses:217 steiners:145
pn:0 obtuses:217 steiners:146
pn:0 obtuses:217 steiners:147
pn:2.0252 obtuses:220 steiners:148
pn:0 obtuses:220 steiners:149
pn:0 obtuses:220 steiners:150
pn:0.682538 obtuses:221 steiners:151
pn:1.36487 obtuses:223 steiners:152
pn:1.36161 obtuses:225 steiners:153
pn:-0.68374 obtuses:224 steiners:154
pn:0 obtuses:224 steiners:155
pn:0 obtuses:224 steiners:156
pn:0 obtuses:224 steiners:157
pn:0 obtuses:224 steiners:158
pn:0 obtuses:224 steiners:159
pn:0 obtuses:224 steiners:160
pn:0 obtuses:224 steiners:161
pn:1.43556 obtuses:226 steiners:162
pn:1.43172 obtuses:228 steiners:163
pn:0 obtuses:228 steiners:164
pn:0 obtuses:228 steiners:165
pn:0 obtuses:228 steiners:166
pn:1.45415 obtuses:230 steiners:167
pn:1.45022 obtuses:232 steiners:168
pn:0 obtuses:232 steiners:169
pn:1.45494 obtuses:234 steiners:170
pn:0 obtuses:234 steiners:171
pn:0 obtuses:234 steiners:172
pn:1.46809 obtuses:236 steiners:173
pn:0 obtuses:236 steiners:174
pn:0 obtuses:236 steiners:175
pn:0 obtuses:236 steiners:176
pn:0 obtuses:236 steiners:177
pn:0 obtuses:236 steiners:178
pn:0 obtuses:236 steiners:179
pn:0 obtuses:236 steiners:180
pn:0 obtuses:236 steiners:181
pn:0 obtuses:236 steiners:182
pn:0 obtuses:236 steiners:183
pn:0 obtuses:236 steiners:184
pn:0 obtuses:236 steiners:185
pn:1.56541 obtuses:238 steiners:186
pn:0 obtuses:238 steiners:187
pn:0 obtuses:238 steiners:188
pn:0 obtuses:238 steiners:189
pn:1.58578 obtuses:240 steiners:190
pn:1.58092 obtuses:242 steiners:191
pn:0 obtuses:242 steiners:192
pn:0 obtuses:242 steiners:193
pn:0 obtuses:242 steiners:194
pn:0 obtuses:242 steiners:195
pn:0 obtuses:242 steiners:196
pn:1.61729 obtuses:244 steiners:197
pn:1.61225 obtuses:246 steiners:198
pn:1.60729 obtuses:248 steiners:199
Warning: The Steiner point is too close to an existing point and will not be inserted.
pn:-0.80606 obtuses:247 steiners:200
pn:0 obtuses:247 steiners:201
pn:0 obtuses:247 steiners:202
pn:0 obtuses:247 steiners:203
pn:0 obtuses:247 steiners:204
pn:1.6492 obtuses:249 steiners:205
pn:1.64401 obtuses:251 steiners:206
pn:0 obtuses:251 steiners:207
pn:0 obtuses:251 steiners:208
pn:0 obtuses:251 steiners:209
pn:1.6627 obtuses:253 steiners:210
pn:1.65749 obtuses:255 steiners:211
pn:2.47371 obtuses:258 steiners:212
pn:0 obtuses:258 steiners:213
pn:0 obtuses:258 steiners:214
pn:0 obtuses:258 steiners:215
pn:0 obtuses:258 steiners:216
pn:0 obtuses:258 steiners:217
pn:0 obtuses:258 steiners:218
pn:1.68726 obtuses:260 steiners:219
pn:0 obtuses:260 steiners:220
pn:0 obtuses:260 steiners:221
pn:0 obtuses:260 steiners:222
pn:0 obtuses:260 steiners:223
pn:0.857965 obtuses:261 steiners:224
pn:0 obtuses:261 steiners:225
pn:0.862332 obtuses:262 steiners:226
The triangle is infinite 
pn:0 obtuses:262 steiners:227
pn:1.73004 obtuses:264 steiners:228
pn:-0.867172 obtuses:263 steiners:229
pn:-0.874285 obtuses:262 steiners:230
pn:0 obtuses:262 steiners:231
pn:0 obtuses:262 steiners:232
pn:0 obtuses:262 steiners:233
pn:0 obtuses:262 steiners:234
pn:0 obtuses:262 steiners:235
pn:1.79088 obtuses:264 steiners:236
pn:1.78491 obtuses:266 steiners:237
pn:0 obtuses:266 steiners:238
pn:0 obtuses:266 steiners:239
pn:0 obtuses:266 steiners:240
pn:0 obtuses:266 steiners:241
pn:0 obtuses:266 steiners:242
pn:0 obtuses:266 steiners:243
Warning: The Steiner point is too close to an existing point and will not be inserted.
pn:0 obtuses:266 steiners:244
pn:0 obtuses:266 steiners:245
pn:0 obtuses:266 steiners:246
pn:1.84645 obtuses:268 steiners:247
pn:1.84015 obtuses:270 steiners:248
pn:0 obtuses:270 steiners:249
pn:0 obtuses:270 steiners:250
pn:1.84871 obtuses:272 steiners:251
pn:-0.926335 obtuses:271 steiners:252
pn:1.85662 obtuses:273 steiners:253
pn:0 obtuses:273 steiners:254
pn:0 obtuses:273 steiners:255
pn:0 obtuses:273 steiners:256
pn:0.937843 obtuses:274 steiners:257
pn:1.87273 obtuses:276 steiners:258
pn:0 obtuses:276 steiners:259
pn:0 obtuses:276 steiners:260
pn:0.942134 obtuses:277 steiners:261
pn:0 obtuses:277 steiners:262
pn:0 obtuses:277 steiners:263
pn:0 obtuses:277 steiners:264
pn:0 obtuses:277 steiners:265
pn:0 obtuses:277 steiners:266
pn:0 obtuses:277 steiners:267
pn:2.88153 obtuses:280 steiners:268
pn:0 obtuses:280 steiners:269
pn:0.960784 obtuses:281 steiners:270
pn:1.91845 obtuses:283 steiners:271
pn:0 obtuses:283 steiners:272
pn:0 obtuses:283 steiners:273
pn:0 obtuses:283 steiners:274
pn:0 obtuses:283 steiners:275
pn:-0.975221 obtuses:282 steiners:276
pn:0 obtuses:282 steiners:277
pn:0 obtuses:282 steiners:278
pn:0 obtuses:282 steiners:279
pn:0 obtuses:282 steiners:280
pn:1.98234 obtuses:284 steiners:281
pn:1.97544 obtuses:286 steiners:282
pn:1.96865 obtuses:288 steiners:283
pn:0 obtuses:288 steiners:284
pn:0 obtuses:288 steiners:285
pn:0 obtuses:288 steiners:286
The triangle is infinite 
pn:-0.996522 obtuses:287 steiners:287
pn:0 obtuses:287 steiners:288
pn:0 obtuses:287 steiners:289
pn:0 obtuses:287 steiners:290
pn:0 obtuses:287 steiners:291
pn:0 obtuses:287 steiners:292
pn:1.01739 obtuses:288 steiners:293
pn:-1.02087 obtuses:287 steiners:294
pn:0 obtuses:287 steiners:295
pn:0 obtuses:287 steiners:296
pn:1.0313 obtuses:288 steiners:297
pn:-1.03478 obtuses:287 steiners:298
pn:0 obtuses:287 steiners:299
pn:2.07987 obtuses:289 steiners:300
pn:0 obtuses:289 steiners:301
pn:0 obtuses:289 steiners:302
pn:-1.04853 obtuses:288 steiners:303
pn:-1.05565 obtuses:287 steiners:304
pn:0 obtuses:287 steiners:305
pn:2.12153 obtuses:289 steiners:306
pn:-1.06239 obtuses:288 steiners:307
pn:0 obtuses:288 steiners:308
pn:0 obtuses:288 steiners:309
pn:-1.07652 obtuses:287 steiners:310
pn:0 obtuses:287 steiners:311
pn:1.08348 obtuses:288 steiners:312
pn:0 obtuses:288 steiners:313
pn:2.16956 obtuses:290 steiners:314
pn:2.16152 obtuses:292 steiners:315
pn:0 obtuses:292 steiners:316
pn:0 obtuses:292 steiners:317
pn:0 obtuses:292 steiners:318
pn:1.08889 obtuses:293 steiners:319
pn:0 obtuses:293 steiners:320
pn:0 obtuses:293 steiners:321
pn:0 obtuses:293 steiners:322
pn:0 obtuses:293 steiners:323
pn:0 obtuses:293 steiners:324
pn:0 obtuses:293 steiners:325
pn:0 obtuses:293 steiners:326
pn:0 obtuses:293 steiners:327
pn:0 obtuses:293 steiners:328
pn:3.34638 obtuses:296 steiners:329
pn:0 obtuses:296 steiners:330
pn:0 obtuses:296 steiners:331
pn:0 obtuses:296 steiners:332
pn:2.23906 obtuses:298 steiners:333
pn:2.23078 obtuses:300 steiners:334
pn:0 obtuses:300 steiners:335
pn:0 obtuses:300 steiners:336
pn:0 obtuses:300 steiners:337
pn:0 obtuses:300 steiners:338
pn:2.24918 obtuses:302 steiners:339
pn:0 obtuses:302 steiners:340
pn:0 obtuses:302 steiners:341
pn:0 obtuses:302 steiners:342
pn:3.38553 obtuses:305 steiners:343
pn:0 obtuses:305 steiners:344
pn:0 obtuses:305 steiners:345
pn:1.13093 obtuses:306 steiners:346
pn:0 obtuses:306 steiners:347
pn:0 obtuses:306 steiners:348
pn:1.13703 obtuses:307 steiners:349
pn:0 obtuses:307 steiners:350
pn:0 obtuses:307 steiners:351
pn:0 obtuses:307 steiners:352
pn:0 obtuses:307 steiners:353
pn:0 obtuses:307 steiners:354
pn:0 obtuses:307 steiners:355
pn:0 obtuses:307 steiners:356
pn:0 obtuses:307 steiners:357
pn:0 obtuses:307 steiners:358
pn:0 obtuses:307 steiners:359
pn:0 obtuses:307 steiners:360
pn:0 obtuses:307 steiners:361
pn:0 obtuses:307 steiners:362
pn:0 obtuses:307 steiners:363
pn:0 obtuses:307 steiners:364
pn:0 obtuses:307 steiners:365
pn:0 obtuses:307 steiners:366
pn:0 obtuses:307 steiners:367
pn:0 obtuses:307 steiners:368
pn:0 obtuses:307 steiners:369
Warning: The Steiner point is too close to an existing point and will not be inserted.
pn:0 obtuses:307 steiners:370
pn:0 obtuses:307 steiners:371
pn:0 obtuses:307 steiners:372
pn:1.21138 obtuses:308 steiners:373
pn:3.62038 obtuses:311 steiners:374
pn:0 obtuses:311 steiners:375
pn:0 obtuses:311 steiners:376
pn:3.61443 obtuses:314 steiners:377
pn:0 obtuses:314 steiners:378
pn:0 obtuses:314 steiners:379
pn:0 obtuses:314 steiners:380
pn:0 obtuses:314 steiners:381
pn:2.42223 obtuses:316 steiners:382
The triangle is infinite 
pn:0 obtuses:316 steiners:383
pn:0 obtuses:316 steiners:384
pn:0 obtuses:316 steiners:385
pn:0 obtuses:316 steiners:386
The triangle is infinite 
pn:0 obtuses:316 steiners:387
pn:0 obtuses:316 steiners:388
pn:0 obtuses:316 steiners:389
pn:0 obtuses:316 steiners:390
pn:2.46373 obtuses:318 steiners:391
pn:0 obtuses:318 steiners:392
pn:0 obtuses:318 steiners:393
pn:0 obtuses:318 steiners:394
pn:2.47336 obtuses:320 steiners:395
Μέσος ρυθμός σύγκλισης: 0.319248
Ενέργεια τριγωνοποίσης που δεν συγκλίνει: 837.5
Method: Ant Colony: 
	Original CDT had: 139/171 obtuse faces
	We inserted 395 steiner points:
		Middle of largest edge: 8
		Circumcenter: 94
		Projection: 290
		Polygon Cnetroid: 0
Final obtuse faces: 320/949
Τελικές αμβλείες: 320
Τελικές faces: 949
