Input file: .vscode/temp_3_ant.json
Output file: .vscode/output_3_ant.json
simple-polygon-exterior-20_250_eb5ab92f
250

POINTS_X
9 ,8 ,0 ,0 ,17 ,10 ,-19 ,-17 ,-28 ,-38 ,-25 ,-30 ,-44 ,-40 ,-46 ,-46 ,-57 ,-72 ,-73 ,-80 ,-99 ,-93 ,-86 ,-90 ,-88 ,-96 ,-94 ,-94 ,-84 ,-83 ,-61 ,-60 ,-63 ,-69 ,-70 ,-77 ,-82 ,-82 ,-75 ,-70 ,-65 ,-62 ,-47 ,-45 ,-44 ,-46 ,-42 ,-47 ,-43 ,-54 ,-56 ,-63 ,-50 ,-39 ,-30 ,-30 ,-38 ,-35 ,-25 ,-18 ,-5 ,-2 ,5 ,17 ,26 ,39 ,49 ,51 ,50 ,54 ,58 ,64 ,69 ,70 ,70 ,75 ,85 ,86 ,85 ,82 ,79 ,66 ,64 ,64 ,52 ,49 ,40 ,43 ,42 ,38 ,36 ,41 ,40 ,33 ,25 ,23 ,20 ,24 ,29 ,29 ,26 ,17 ,31 ,38 ,35 ,62 ,63 ,42 ,38 ,17 ,8 ,1 ,-3 ,-4 ,6 ,7 ,0 ,-3 ,-4 ,-12 ,-20 ,-36 ,-24 ,-16 ,-18 ,-16 ,-13 ,-12 ,-14 ,-17 ,-20 ,-26 ,-28 ,-33 ,-37 ,-43 ,-55 ,-70 ,-61 ,-60 ,-69 ,-92 ,-97 ,-97 ,-88 ,-87 ,-83 ,-80 ,-78 ,-76 ,-59 ,-39 ,-42 ,-50 ,-53 ,-61 ,-66 ,-58 ,-61 ,-64 ,-67 ,-84 ,-96 ,-83 ,-77 ,-70 ,-67 ,-53 ,-29 ,-28 ,-19 ,-12 ,-21 ,-22 ,-18 ,-16 ,-11 ,-5 ,-7 ,-1 ,1 ,2 ,7 ,12 ,7 ,3 ,7 ,0 ,-3 ,0 ,5 ,6 ,14 ,15 ,19 ,25 ,28 ,31 ,40 ,51 ,52 ,59 ,60 ,69 ,70 ,55 ,42 ,57 ,70 ,77 ,99 ,93 ,92 ,91 ,92 ,91 ,95 ,98 ,92 ,93 ,83 ,76 ,75 ,68 ,63 ,60 ,54 ,59 ,66 ,69 ,77 ,93 ,79 ,71 ,74 ,82 ,96 ,82 ,83 ,81 ,78 ,53 ,54 ,53 ,51 ,49 ,32 ,40 ,37 ,16 ,
POINTS_Y
-79 ,-84 ,-78 ,-75 ,-72 ,-49 ,-62 ,-66 ,-71 ,-81 ,-89 ,-94 ,-95 ,-84 ,-82 ,-79 ,-84 ,-87 ,-96 ,-95 ,-97 ,-86 ,-79 ,-68 ,-61 ,-36 ,-30 ,-20 ,-29 ,-30 ,-26 ,-20 ,-14 ,-19 ,-19 ,-16 ,-14 ,-3 ,0 ,6 ,0 ,-2 ,12 ,7 ,7 ,-3 ,-6 ,-26 ,-30 ,-50 ,-62 ,-75 ,-60 ,-67 ,-68 ,-63 ,-56 ,-54 ,-54 ,-39 ,-39 ,-47 ,-41 ,-35 ,-37 ,-49 ,-47 ,-45 ,-37 ,-21 ,-19 ,-17 ,-19 ,-14 ,0 ,0 ,11 ,35 ,36 ,35 ,38 ,39 ,37 ,20 ,12 ,8 ,27 ,33 ,33 ,39 ,41 ,42 ,61 ,57 ,58 ,52 ,42 ,41 ,41 ,33 ,22 ,21 ,12 ,8 ,-1 ,-8 ,-14 ,-15 ,-24 ,-25 ,-22 ,-17 ,-20 ,-7 ,-6 ,-4 ,14 ,17 ,17 ,10 ,-5 ,4 ,4 ,16 ,34 ,36 ,38 ,42 ,44 ,49 ,51 ,43 ,39 ,33 ,46 ,47 ,39 ,39 ,26 ,20 ,19 ,12 ,9 ,35 ,36 ,51 ,49 ,55 ,53 ,55 ,50 ,61 ,63 ,60 ,62 ,56 ,63 ,64 ,66 ,70 ,72 ,74 ,85 ,84 ,80 ,85 ,88 ,88 ,72 ,73 ,87 ,85 ,77 ,73 ,64 ,62 ,60 ,54 ,52 ,49 ,34 ,29 ,31 ,48 ,59 ,66 ,73 ,75 ,97 ,95 ,97 ,94 ,89 ,98 ,93 ,91 ,93 ,85 ,80 ,70 ,66 ,71 ,58 ,59 ,80 ,89 ,96 ,95 ,99 ,79 ,81 ,49 ,40 ,36 ,27 ,15 ,-9 ,-17 ,-17 ,-29 ,-24 ,-22 ,-18 ,-29 ,-41 ,-39 ,-48 ,-49 ,-48 ,-46 ,-43 ,-50 ,-62 ,-61 ,-70 ,-74 ,-83 ,-97 ,-91 ,-86 ,-87 ,-90 ,-82 ,-80 ,-77 ,-71 ,-68 ,-80 ,-90 ,-81 ,
REGION_BOUND
20 ,237 ,236 ,217 ,210 ,208 ,193 ,188 ,162 ,143 ,
NUM CONSTRAINTS
198

ADDITIONAL CONSTRAINTS
[0,1] ,[1,2] ,[3,4] ,[4,5] ,[5,6] ,[6,7] ,[7,8] ,[8,9] ,[9,10] ,[11,12] ,[12,13] ,[13,14] ,[14,15] ,[15,16] ,[16,17] ,[18,19] ,[19,20] ,[20,21] ,[21,22] ,[22,23] ,[23,24] ,[24,25] ,[25,26] ,[26,27] ,[27,28] ,[28,29] ,[29,30] ,[34,35] ,[35,36] ,[37,38] ,[38,39] ,[40,41] ,[41,42] ,[43,44] ,[44,45] ,[46,47] ,[47,48] ,[48,49] ,[49,50] ,[51,52] ,[52,53] ,[53,54] ,[55,56] ,[57,58] ,[58,59] ,[59,60] ,[60,61] ,[61,62] ,[64,65] ,[65,66] ,[67,68] ,[69,70] ,[70,71] ,[73,74] ,[75,76] ,[76,77] ,[78,79] ,[79,80] ,[80,81] ,[81,82] ,[82,83] ,[84,85] ,[86,87] ,[87,88] ,[88,89] ,[89,90] ,[91,92] ,[92,93] ,[93,94] ,[95,96] ,[96,97] ,[97,98] ,[98,99] ,[99,100] ,[100,101] ,[101,102] ,[102,103] ,[103,104] ,[105,106] ,[106,107] ,[107,108] ,[108,109] ,[109,110] ,[111,112] ,[112,113] ,[115,116] ,[116,117] ,[117,118] ,[118,119] ,[119,120] ,[120,121] ,[121,122] ,[122,123] ,[123,124] ,[124,125] ,[125,126] ,[126,127] ,[127,128] ,[128,129] ,[129,130] ,[130,131] ,[131,132] ,[133,134] ,[134,135] ,[135,136] ,[137,138] ,[138,139] ,[139,140] ,[140,141] ,[141,142] ,[142,143] ,[143,144] ,[144,145] ,[145,146] ,[146,147] ,[148,149] ,[149,150] ,[150,151] ,[151,152] ,[154,155] ,[155,156] ,[156,157] ,[158,159] ,[160,161] ,[161,162] ,[162,163] ,[164,165] ,[166,167] ,[167,168] ,[168,169] ,[169,170] ,[170,171] ,[172,173] ,[173,174] ,[174,175] ,[175,176] ,[176,177] ,[177,178] ,[178,179] ,[179,180] ,[180,181] ,[181,182] ,[182,183] ,[183,184] ,[185,186] ,[186,187] ,[187,188] ,[188,189] ,[189,190] ,[190,191] ,[192,193] ,[193,194] ,[194,195] ,[196,197] ,[197,198] ,[198,199] ,[199,200] ,[200,201] ,[201,202] ,[202,203] ,[203,204] ,[204,205] ,[205,206] ,[206,207] ,[207,208] ,[208,209] ,[209,210] ,[210,211] ,[211,212] ,[212,213] ,[213,214] ,[214,215] ,[215,216] ,[216,217] ,[217,218] ,[218,219] ,[220,221] ,[221,222] ,[224,225] ,[225,226] ,[226,227] ,[227,228] ,[228,229] ,[229,230] ,[230,231] ,[231,232] ,[233,234] ,[235,236] ,[237,238] ,[238,239] ,[240,241] ,[242,243] ,[243,244] ,[244,245] ,[245,246] ,[246,247] ,[247,248] ,[249,0] ,
METHOD: ant

PARAMETERS:
L: 100, alpha: 2, beta: 0.5, kappa: 10, lambda: 0.5, psi: 3, xi: 1, 
DELAUNAY: true
Αρχικές αμβλείες: 253
Αρχικά faces: 488
Γ. ΚΥΡΤΟ ΠΕΡΙΒΛΗΜΑ (ΚΛΕΙΣΤΟ)
pn:0 obtuses:253 steiners:3
pn:0.0273707 obtuses:255 steiners:4
pn:0.0350113 obtuses:257 steiners:5
pn:0.0425182 obtuses:259 steiners:6
pn:0 obtuses:259 steiners:7
pn:0 obtuses:259 steiners:8
pn:0 obtuses:259 steiners:9
pn:0 obtuses:259 steiners:10
pn:0.0404319 obtuses:260 steiners:11
pn:0.0441181 obtuses:261 steiners:12
pn:0.0477757 obtuses:262 steiners:13
pn:0.102615 obtuses:264 steiners:14
pn:0.109391 obtuses:266 steiners:15
pn:0.173773 obtuses:269 steiners:16
pn:0 obtuses:269 steiners:17
pn:0 obtuses:269 steiners:18
pn:0.068629 obtuses:270 steiners:19
pn:0.072073 obtuses:271 steiners:20
pn:0.150706 obtuses:273 steiners:21
pn:0.156907 obtuses:275 steiners:22
pn:0.163017 obtuses:277 steiners:23
pn:0.16904 obtuses:279 steiners:24
pn:0 obtuses:279 steiners:25
pn:0 obtuses:279 steiners:26
pn:0 obtuses:279 steiners:27
pn:0 obtuses:279 steiners:28
pn:0 obtuses:279 steiners:29
pn:0 obtuses:279 steiners:30
pn:0.217839 obtuses:281 steiners:31
pn:0.223386 obtuses:283 steiners:32
pn:0.228856 obtuses:285 steiners:33
pn:0.234249 obtuses:287 steiners:34
Warning: The Steiner point is too close to an existing point and will not be inserted.
pn:0 obtuses:287 steiners:35
pn:0 obtuses:287 steiners:36
pn:0 obtuses:287 steiners:37
pn:0.260402 obtuses:289 steiners:38
pn:0.265503 obtuses:291 steiners:39
pn:0.270535 obtuses:293 steiners:40
pn:0.275497 obtuses:295 steiners:41
pn:0 obtuses:295 steiners:42
pn:0 obtuses:295 steiners:43
pn:0.147202 obtuses:296 steiners:44
pn:0.299652 obtuses:298 steiners:45
pn:0.304337 obtuses:300 steiners:46
pn:0.308959 obtuses:302 steiners:47
pn:0.313521 obtuses:304 steiners:48
pn:-0.159797 obtuses:303 steiners:49
pn:0 obtuses:303 steiners:50
pn:0 obtuses:303 steiners:51
pn:0.338806 obtuses:305 steiners:52
pn:0.343128 obtuses:307 steiners:53
pn:0.347394 obtuses:309 steiners:54
pn:0.526559 obtuses:312 steiners:55
pn:0.53109 obtuses:315 steiners:56
pn:0 obtuses:315 steiners:57
pn:0 obtuses:315 steiners:58
pn:0 obtuses:315 steiners:59
pn:0 obtuses:315 steiners:60
pn:0.382904 obtuses:317 steiners:61
pn:0.386785 obtuses:319 steiners:62
pn:0.390618 obtuses:321 steiners:63
pn:-0.198124 obtuses:320 steiners:64
pn:-0.201874 obtuses:319 steiners:65
pn:0 obtuses:319 steiners:66
pn:0 obtuses:319 steiners:67
pn:0 obtuses:319 steiners:68
pn:0.428119 obtuses:321 steiners:69
pn:0.431671 obtuses:323 steiners:70
pn:0.435179 obtuses:325 steiners:71
pn:0 obtuses:325 steiners:72
pn:0 obtuses:325 steiners:73
pn:0 obtuses:325 steiners:74
pn:0 obtuses:325 steiners:75
pn:0.231948 obtuses:326 steiners:76
pn:0.467885 obtuses:328 steiners:77
pn:0.47112 obtuses:330 steiners:78
pn:0 obtuses:330 steiners:79
pn:0 obtuses:330 steiners:80
pn:0 obtuses:330 steiners:81
pn:0 obtuses:330 steiners:82
pn:0.498485 obtuses:332 steiners:83
pn:0.501497 obtuses:334 steiners:84
pn:0.504473 obtuses:336 steiners:85
Warning: The Steiner point is too close to an existing point and will not be inserted.
pn:-0.254841 obtuses:335 steiners:86
pn:0 obtuses:335 steiners:87
pn:0 obtuses:335 steiners:88
pn:0 obtuses:335 steiners:89
pn:0.266763 obtuses:336 steiners:90
pn:0.537088 obtuses:338 steiners:91
pn:0.539819 obtuses:340 steiners:92
Warning: The Steiner point is too close to an existing point and will not be inserted.
pn:0 obtuses:340 steiners:93
pn:0 obtuses:340 steiners:94
pn:0 obtuses:340 steiners:95
pn:0 obtuses:340 steiners:96
pn:0.847728 obtuses:343 steiners:97
pn:-0.284669 obtuses:342 steiners:98
pn:0 obtuses:342 steiners:99
pn:0 obtuses:342 steiners:100
pn:0 obtuses:342 steiners:101
pn:0.296348 obtuses:343 steiners:102
pn:0 obtuses:343 steiners:103
pn:0 obtuses:343 steiners:104
pn:0 obtuses:343 steiners:105
pn:0.613369 obtuses:345 steiners:106
pn:0.615604 obtuses:347 steiners:107
pn:0.617813 obtuses:349 steiners:108
pn:0.619997 obtuses:351 steiners:109
pn:0 obtuses:351 steiners:110
pn:0 obtuses:351 steiners:111
pn:0 obtuses:351 steiners:112
pn:0.320055 obtuses:352 steiners:113
pn:0.321984 obtuses:353 steiners:114
pn:0.64689 obtuses:355 steiners:115
pn:0.971949 obtuses:358 steiners:116
pn:-0.325872 obtuses:357 steiners:117
pn:0 obtuses:357 steiners:118
pn:0 obtuses:357 steiners:119
pn:0 obtuses:357 steiners:120
pn:0.673182 obtuses:359 steiners:121
pn:0.674998 obtuses:361 steiners:122
pn:-0.339804 obtuses:360 steiners:123
pn:0 obtuses:360 steiners:124
pn:0 obtuses:360 steiners:125
pn:0.695289 obtuses:362 steiners:126
pn:0.696968 obtuses:364 steiners:127
pn:0.698628 obtuses:366 steiners:128
pn:-0.704108 obtuses:364 steiners:129
pn:0 obtuses:364 steiners:130
pn:0 obtuses:364 steiners:131
pn:0 obtuses:364 steiners:132
pn:0 obtuses:364 steiners:133
pn:1.09576 obtuses:367 steiners:134
pn:0 obtuses:367 steiners:135
pn:0 obtuses:367 steiners:136
pn:0 obtuses:367 steiners:137
pn:0 obtuses:367 steiners:138
pn:0.752716 obtuses:369 steiners:139
pn:0.754053 obtuses:371 steiners:140
pn:0.755375 obtuses:373 steiners:141
pn:0.756683 obtuses:375 steiners:142
pn:-0.380506 obtuses:374 steiners:143
pn:0 obtuses:374 steiners:144
pn:0 obtuses:374 steiners:145
pn:0 obtuses:374 steiners:146
pn:0 obtuses:374 steiners:147
pn:0.786666 obtuses:376 steiners:148
pn:0.787797 obtuses:378 steiners:149
pn:0.788917 obtuses:380 steiners:150
pn:1.18349 obtuses:383 steiners:151
pn:0 obtuses:383 steiners:152
pn:0 obtuses:383 steiners:153
pn:0.40026 obtuses:384 steiners:154
pn:0.802596 obtuses:386 steiners:155
pn:-0.403371 obtuses:385 steiners:156
pn:-0.407021 obtuses:384 steiners:157
pn:-0.41069 obtuses:383 steiners:158
pn:0.82552 obtuses:385 steiners:159
pn:1.23804 obtuses:388 steiners:160
pn:-0.414192 obtuses:387 steiners:161
pn:0 obtuses:387 steiners:162
pn:0.837628 obtuses:389 steiners:163
pn:0.838461 obtuses:391 steiners:164
pn:0 obtuses:391 steiners:165
pn:0 obtuses:391 steiners:166
pn:0.425286 obtuses:392 steiners:167
pn:0.852417 obtuses:394 steiners:168
pn:1.27813 obtuses:397 steiners:169
pn:-0.42749 obtuses:396 steiners:170
pn:0 obtuses:396 steiners:171
pn:0 obtuses:396 steiners:172
pn:0 obtuses:396 steiners:173
pn:0.874055 obtuses:398 steiners:174
pn:0.874686 obtuses:400 steiners:175
pn:0 obtuses:400 steiners:176
pn:0 obtuses:400 steiners:177
pn:0 obtuses:400 steiners:178
pn:0 obtuses:400 steiners:179
pn:0.448189 obtuses:401 steiners:180
pn:1.34534 obtuses:404 steiners:181
pn:-0.449813 obtuses:403 steiners:182
pn:0 obtuses:403 steiners:183
pn:0.45477 obtuses:404 steiners:184
pn:0.911111 obtuses:406 steiners:185
pn:-0.457459 obtuses:405 steiners:186
pn:0 obtuses:405 steiners:187
pn:0 obtuses:405 steiners:188
pn:0 obtuses:405 steiners:189
pn:0.467323 obtuses:406 steiners:190
pn:0.468634 obtuses:407 steiners:191
pn:0.938725 obtuses:409 steiners:192
pn:0.939024 obtuses:411 steiners:193
pn:-0.471376 obtuses:410 steiners:194
pn:0 obtuses:410 steiners:195
pn:0 obtuses:410 steiners:196
pn:0.478684 obtuses:411 steiners:197
pn:0.958738 obtuses:413 steiners:198
pn:0 obtuses:413 steiners:199
pn:0 obtuses:413 steiners:200
pn:0.484884 obtuses:414 steiners:201
pn:0.971084 obtuses:416 steiners:202
pn:0.971223 obtuses:418 steiners:203
pn:-0.487424 obtuses:417 steiners:204
pn:0 obtuses:417 steiners:205
pn:0.983254 obtuses:419 steiners:206
pn:0.983333 obtuses:421 steiners:207
pn:0.983412 obtuses:423 steiners:208
pn:0.983491 obtuses:425 steiners:209
pn:-0.493521 obtuses:424 steiners:210
pn:0 obtuses:424 steiners:211
pn:0 obtuses:424 steiners:212
pn:1 obtuses:426 steiners:213
pn:1 obtuses:428 steiners:214
pn:-0.501754 obtuses:427 steiners:215
pn:0 obtuses:427 steiners:216
pn:0 obtuses:427 steiners:217
pn:1.52276 obtuses:430 steiners:218
pn:-0.50873 obtuses:429 steiners:219
pn:0 obtuses:429 steiners:220
pn:0.513387 obtuses:430 steiners:221
pn:0 obtuses:430 steiners:222
pn:0 obtuses:430 steiners:223
pn:1.03712 obtuses:432 steiners:224
pn:1.03695 obtuses:434 steiners:225
pn:1.03678 obtuses:436 steiners:226
pn:-0.520091 obtuses:435 steiners:227
pn:0 obtuses:435 steiners:228
pn:0 obtuses:435 steiners:229
pn:0 obtuses:435 steiners:230
pn:1.05734 obtuses:437 steiners:231
pn:1.58381 obtuses:440 steiners:232
pn:0 obtuses:440 steiners:233
pn:0 obtuses:440 steiners:234
pn:0 obtuses:440 steiners:235
pn:1.06803 obtuses:442 steiners:236
pn:1.06772 obtuses:444 steiners:237
pn:0 obtuses:444 steiners:238
pn:0 obtuses:444 steiners:239
pn:0.538807 obtuses:445 steiners:240
pn:1.07848 obtuses:447 steiners:241
pn:1.07813 obtuses:449 steiners:242
pn:1.07778 obtuses:451 steiners:243
pn:0 obtuses:451 steiners:244
pn:0 obtuses:451 steiners:245
pn:0 obtuses:451 steiners:246
pn:1.09071 obtuses:453 steiners:247
pn:0 obtuses:453 steiners:248
pn:0 obtuses:453 steiners:249
pn:0 obtuses:453 steiners:250
pn:1.10352 obtuses:455 steiners:251
pn:1.6528 obtuses:458 steiners:252
pn:0 obtuses:458 steiners:253
pn:0 obtuses:458 steiners:254
pn:0.55507 obtuses:459 steiners:255
pn:-0.557251 obtuses:458 steiners:256
pn:-0.560655 obtuses:457 steiners:257
pn:0 obtuses:457 steiners:258
pn:0.565027 obtuses:458 steiners:259
pn:1.13072 obtuses:460 steiners:260
pn:1.69339 obtuses:463 steiners:261
pn:-0.565405 obtuses:462 steiners:262
pn:-0.568797 obtuses:461 steiners:263
pn:0 obtuses:461 steiners:264
pn:0 obtuses:461 steiners:265
pn:0 obtuses:461 steiners:266
pn:0 obtuses:461 steiners:267
pn:1.15801 obtuses:463 steiners:268
Warning: The Steiner point is too close to an existing point and will not be inserted.
pn:0 obtuses:463 steiners:269
pn:0 obtuses:463 steiners:270
pn:1.74704 obtuses:466 steiners:271
Warning: The Steiner point is too close to an existing point and will not be inserted.
pn:0 obtuses:466 steiners:272
pn:0 obtuses:466 steiners:273
pn:1.17131 obtuses:468 steiners:274
pn:1.17058 obtuses:470 steiners:275
Warning: The Steiner point is too close to an existing point and will not be inserted.
pn:0 obtuses:470 steiners:276
pn:0.587672 obtuses:471 steiners:277
pn:0.588547 obtuses:472 steiners:278
pn:1.17759 obtuses:474 steiners:279
pn:0 obtuses:474 steiners:280
pn:0 obtuses:474 steiners:281
pn:0 obtuses:474 steiners:282
pn:0.595363 obtuses:475 steiners:283
pn:0.596214 obtuses:476 steiners:284
pn:1.19287 obtuses:478 steiners:285
pn:-0.597905 obtuses:477 steiners:286
pn:0 obtuses:477 steiners:287
pn:0 obtuses:477 steiners:288
pn:1.20711 obtuses:479 steiners:289
pn:0 obtuses:479 steiners:290
pn:0 obtuses:479 steiners:291
pn:0.607925 obtuses:480 steiners:292
pn:1.21622 obtuses:482 steiners:293
pn:1.21532 obtuses:484 steiners:294
pn:-0.6091 obtuses:483 steiners:295
pn:0 obtuses:483 steiners:296
pn:0 obtuses:483 steiners:297
pn:0.615305 obtuses:484 steiners:298
pn:0.616099 obtuses:485 steiners:299
pn:1.23251 obtuses:487 steiners:300
pn:0 obtuses:487 steiners:301
pn:1.23566 obtuses:489 steiners:302
pn:-0.619242 obtuses:488 steiners:303
pn:0 obtuses:488 steiners:304
pn:0 obtuses:488 steiners:305
pn:0.625383 obtuses:489 steiners:306
pn:-0.627431 obtuses:488 steiners:307
pn:0 obtuses:488 steiners:308
pn:1.26176 obtuses:490 steiners:309
pn:-0.632278 obtuses:489 steiners:310
pn:-0.635619 obtuses:488 steiners:311
pn:0 obtuses:488 steiners:312
pn:0 obtuses:488 steiners:313
pn:0.64176 obtuses:489 steiners:314
pn:1.28367 obtuses:491 steiners:315
pn:0 obtuses:491 steiners:316
pn:0 obtuses:491 steiners:317
pn:0 obtuses:491 steiners:318
pn:0.648016 obtuses:492 steiners:319
pn:0 obtuses:492 steiners:320
pn:0 obtuses:492 steiners:321
pn:0 obtuses:492 steiners:322
pn:1.30832 obtuses:494 steiners:323
pn:1.30707 obtuses:496 steiners:324
pn:-0.654894 obtuses:495 steiners:325
pn:-0.65824 obtuses:494 steiners:326
pn:0.660263 obtuses:495 steiners:327
pn:1.32057 obtuses:497 steiners:328
pn:-0.661631 obtuses:496 steiners:329
pn:0 obtuses:496 steiners:330
pn:1.32998 obtuses:498 steiners:331
pn:1.32866 obtuses:500 steiners:332
pn:0 obtuses:500 steiners:333
pn:0 obtuses:500 steiners:334
pn:0 obtuses:500 steiners:335
pn:1.33932 obtuses:502 steiners:336
pn:1.33797 obtuses:504 steiners:337
pn:1.33663 obtuses:506 steiners:338
pn:0 obtuses:506 steiners:339
pn:0 obtuses:506 steiners:340
pn:0 obtuses:506 steiners:341
pn:0 obtuses:506 steiners:342
pn:0.676209 obtuses:507 steiners:343
pn:0.676847 obtuses:508 steiners:344
pn:1.35364 obtuses:510 steiners:345
pn:0 obtuses:510 steiners:346
pn:0 obtuses:510 steiners:347
pn:1.36008 obtuses:512 steiners:348
pn:1.35868 obtuses:514 steiners:349
pn:0 obtuses:514 steiners:350
pn:0.681244 obtuses:515 steiners:351
pn:0 obtuses:515 steiners:352
pn:0 obtuses:515 steiners:353
pn:0 obtuses:515 steiners:354
pn:-0.689018 obtuses:514 steiners:355
pn:-0.692307 obtuses:513 steiners:356
pn:-0.69561 obtuses:512 steiners:357
pn:0.697561 obtuses:513 steiners:358
Warning: The Steiner point is too close to an existing point and will not be inserted.
pn:0 obtuses:513 steiners:359
pn:0.700097 obtuses:514 steiners:360
pn:1.4 obtuses:516 steiners:361
pn:1.39845 obtuses:518 steiners:362
pn:2.09336 obtuses:521 steiners:363
pn:0 obtuses:521 steiners:364
pn:0 obtuses:521 steiners:365
pn:0.700863 obtuses:522 steiners:366
pn:0.701435 obtuses:523 steiners:367
Warning: The Steiner point is too close to an existing point and will not be inserted.
pn:0 obtuses:523 steiners:368
pn:0 obtuses:523 steiners:369
pn:0 obtuses:523 steiners:370
pn:0 obtuses:523 steiners:371
pn:0.709646 obtuses:524 steiners:372
pn:0.7102 obtuses:525 steiners:373
pn:0 obtuses:525 steiners:374
pn:0 obtuses:525 steiners:375
pn:1.42776 obtuses:527 steiners:376
pn:1.42614 obtuses:529 steiners:377
pn:1.42453 obtuses:531 steiners:378
pn:2.1324 obtuses:534 steiners:379
pn:0 obtuses:534 steiners:380
pn:1.42243 obtuses:536 steiners:381
pn:1.42086 obtuses:538 steiners:382
pn:1.4193 obtuses:540 steiners:383
pn:-0.710843 obtuses:539 steiners:384
pn:0 obtuses:539 steiners:385
pn:-0.715877 obtuses:538 steiners:386
pn:0 obtuses:538 steiners:387
pn:1.43785 obtuses:540 steiners:388
pn:0 obtuses:540 steiners:389
pn:0 obtuses:540 steiners:390
pn:0.722479 obtuses:541 steiners:391
pn:1.44465 obtuses:543 steiners:392
pn:1.44302 obtuses:545 steiners:393
pn:1.44139 obtuses:547 steiners:394
pn:0 obtuses:547 steiners:395
pn:0 obtuses:547 steiners:396
pn:0 obtuses:547 steiners:397
pn:0 obtuses:547 steiners:398
pn:0 obtuses:547 steiners:399
pn:0 obtuses:547 steiners:400
pn:1.46168 obtuses:549 steiners:401
pn:-0.731996 obtuses:548 steiners:402
pn:0 obtuses:548 steiners:403
pn:0 obtuses:548 steiners:404
pn:0 obtuses:548 steiners:405
pn:0.739289 obtuses:549 steiners:406
pn:1.47818 obtuses:551 steiners:407
pn:1.47645 obtuses:553 steiners:408
pn:0 obtuses:553 steiners:409
pn:0.739837 obtuses:554 steiners:410
pn:0.740306 obtuses:555 steiners:411
pn:1.48022 obtuses:557 steiners:412
pn:-0.74124 obtuses:556 steiners:413
pn:0 obtuses:556 steiners:414
pn:0 obtuses:556 steiners:415
pn:1.49192 obtuses:558 steiners:416
pn:1.49016 obtuses:560 steiners:417
pn:1.48841 obtuses:562 steiners:418
pn:-0.745325 obtuses:561 steiners:419
pn:1.49288 obtuses:563 steiners:420
pn:1.49114 obtuses:565 steiners:421
pn:2.23213 obtuses:568 steiners:422
pn:0 obtuses:568 steiners:423
pn:2.23091 obtuses:571 steiners:424
pn:0 obtuses:571 steiners:425
pn:0 obtuses:571 steiners:426
pn:0.746282 obtuses:572 steiners:427
pn:0.746725 obtuses:573 steiners:428
pn:0.747166 obtuses:574 steiners:429
pn:1.49391 obtuses:576 steiners:430
pn:2.23637 obtuses:579 steiners:431
pn:-0.745894 obtuses:578 steiners:432
pn:0 obtuses:578 steiners:433
pn:0 obtuses:578 steiners:434
pn:0 obtuses:578 steiners:435
pn:0 obtuses:578 steiners:436
Warning: The Steiner point is too close to an existing point and will not be inserted.
pn:0 obtuses:578 steiners:437
pn:0 obtuses:578 steiners:438
pn:0 obtuses:578 steiners:439
pn:1.51814 obtuses:580 steiners:440
pn:1.51635 obtuses:582 steiners:441
pn:0 obtuses:582 steiners:442
pn:0 obtuses:582 steiners:443
pn:0 obtuses:582 steiners:444
pn:2.28535 obtuses:585 steiners:445
pn:0 obtuses:585 steiners:446
pn:1.52389 obtuses:587 steiners:447
pn:1.52211 obtuses:589 steiners:448
pn:0 obtuses:589 steiners:449
pn:0 obtuses:589 steiners:450
pn:0 obtuses:589 steiners:451
pn:0 obtuses:589 steiners:452
pn:2.2989 obtuses:592 steiners:453
pn:0 obtuses:592 steiners:454
pn:0 obtuses:592 steiners:455
pn:0 obtuses:592 steiners:456
pn:2.3075 obtuses:595 steiners:457
pn:-0.769554 obtuses:594 steiners:458
pn:0 obtuses:594 steiners:459
pn:0 obtuses:594 steiners:460
pn:0.7746 obtuses:595 steiners:461
pn:1.54866 obtuses:597 steiners:462
pn:0 obtuses:597 steiners:463
pn:0 obtuses:597 steiners:464
pn:0 obtuses:597 steiners:465
pn:1.55686 obtuses:599 steiners:466
pn:-0.779449 obtuses:598 steiners:467
pn:0 obtuses:598 steiners:468
pn:0 obtuses:598 steiners:469
pn:0 obtuses:598 steiners:470
pn:0 obtuses:598 steiners:471
pn:1.57429 obtuses:600 steiners:472
pn:1.57238 obtuses:602 steiners:473
pn:-0.787199 obtuses:601 steiners:474
pn:0 obtuses:601 steiners:475
pn:0 obtuses:601 steiners:476
pn:0.792186 obtuses:602 steiners:477
pn:1.58375 obtuses:604 steiners:478
pn:1.58182 obtuses:606 steiners:479
pn:1.5799 obtuses:608 steiners:480
pn:0 obtuses:608 steiners:481
pn:1.58128 obtuses:610 steiners:482
pn:1.57938 obtuses:612 steiners:483
pn:1.57749 obtuses:614 steiners:484
pn:0 obtuses:614 steiners:485
pn:0 obtuses:614 steiners:486
Μέσος ρυθμός σύγκλισης: 0.357117
Ενέργεια τριγωνοποίσης που δεν συγκλίνει: 1471
Method: Ant Colony: 
	Original CDT had: 253/488 obtuse faces
	We inserted 486 steiner points:
		Middle of largest edge: 37
		Circumcenter: 184
		Projection: 265
		Polygon Cnetroid: 0
Final obtuse faces: 614/1455
Τελικές αμβλείες: 614
Τελικές faces: 1455
