Input file: .vscode/temp_4_ant.json
Output file: .vscode/output_4_ant.json
ortho_150_53eb4022
150

POINTS_X
0 ,65096 ,65096 ,402553 ,402553 ,424168 ,424168 ,573710 ,573710 ,528074 ,528074 ,573710 ,573710 ,569404 ,342089 ,342089 ,573710 ,573710 ,501167 ,501167 ,463556 ,463556 ,424168 ,424168 ,800686 ,800686 ,609127 ,609127 ,619374 ,619374 ,683802 ,683802 ,710594 ,710594 ,768341 ,768341 ,800686 ,800686 ,998251 ,998251 ,1138947 ,1138947 ,1235205 ,1235205 ,1138947 ,1138947 ,1235293 ,1235293 ,1256733 ,1256733 ,1384556 ,1384556 ,1266884 ,1266884 ,1120646 ,1120646 ,1051750 ,1051750 ,1031403 ,1031403 ,800686 ,800686 ,847132 ,847132 ,928372 ,928372 ,1000000 ,1000000 ,993050 ,993050 ,964609 ,964609 ,953846 ,953846 ,900166 ,900166 ,835023 ,835023 ,1000000 ,1000000 ,1040030 ,1040030 ,1057145 ,1115712 ,1115712 ,1152506 ,1152506 ,775564 ,775564 ,848379 ,848379 ,950540 ,950540 ,1152506 ,1152506 ,1296978 ,1296978 ,1152506 ,1152506 ,1000000 ,1000000 ,781956 ,781956 ,729534 ,729534 ,585180 ,585180 ,492994 ,492994 ,0 ,0 ,-250968 ,-250968 ,-294671 ,-294671 ,-434566 ,-434566 ,-479882 ,-479882 ,-250968 ,-250968 ,-153420 ,-153420 ,-24269 ,-24269 ,0 ,0 ,359292 ,359292 ,218100 ,218100 ,41319 ,41319 ,218100 ,218100 ,359292 ,359292 ,270394 ,270394 ,218555 ,218555 ,198535 ,198535 ,158822 ,158822 ,99317 ,99317 ,78645 ,78645 ,0 ,
POINTS_Y
0 ,0 ,-300534 ,-300534 ,0 ,0 ,-385956 ,-385956 ,-391664 ,-391664 ,-443133 ,-443133 ,-460209 ,-460209 ,-460209 ,-509840 ,-509840 ,-643336 ,-643336 ,-758392 ,-758392 ,-643336 ,-643336 ,-847097 ,-847097 ,-755596 ,-755596 ,-660017 ,-660017 ,-738419 ,-738419 ,-660017 ,-660017 ,-562501 ,-562501 ,-660017 ,-660017 ,-317351 ,-317351 ,-556701 ,-556701 ,-538548 ,-538548 ,-420606 ,-420606 ,-402226 ,-402226 ,-556701 ,-556701 ,-317351 ,-317351 ,-214950 ,-214950 ,-58561 ,-58561 ,-231430 ,-231430 ,-58561 ,-58561 ,-214950 ,-214950 ,0 ,0 ,-154472 ,-154472 ,0 ,0 ,36287 ,36287 ,97090 ,97090 ,36287 ,36287 ,87063 ,87063 ,36287 ,36287 ,177744 ,177744 ,266284 ,266284 ,227723 ,227723 ,227723 ,266284 ,266284 ,549809 ,549809 ,660735 ,660735 ,894384 ,894384 ,660735 ,660735 ,693118 ,693118 ,848231 ,848231 ,952489 ,952489 ,1000000 ,1000000 ,1685236 ,1685236 ,1728360 ,1728360 ,1685236 ,1685236 ,1000000 ,1000000 ,883594 ,883594 ,880261 ,880261 ,819848 ,819848 ,880261 ,880261 ,665320 ,665320 ,518745 ,518745 ,581277 ,581277 ,518745 ,518745 ,470547 ,470547 ,430877 ,430877 ,286862 ,286862 ,174824 ,174824 ,154190 ,154190 ,46589 ,46589 ,2893 ,2893 ,67772 ,67772 ,2893 ,2893 ,74603 ,74603 ,2893 ,2893 ,46589 ,46589 ,
REGION_BOUND
0 ,1 ,2 ,3 ,4 ,5 ,6 ,7 ,8 ,9 ,10 ,11 ,12 ,13 ,14 ,15 ,16 ,17 ,18 ,19 ,20 ,21 ,22 ,23 ,24 ,25 ,26 ,27 ,28 ,29 ,30 ,31 ,32 ,33 ,34 ,35 ,36 ,37 ,38 ,39 ,40 ,41 ,42 ,43 ,44 ,45 ,46 ,47 ,48 ,49 ,50 ,51 ,52 ,53 ,54 ,55 ,56 ,57 ,58 ,59 ,60 ,61 ,62 ,63 ,64 ,65 ,66 ,67 ,68 ,69 ,70 ,71 ,72 ,73 ,74 ,75 ,76 ,77 ,78 ,79 ,80 ,81 ,82 ,83 ,84 ,85 ,86 ,87 ,88 ,89 ,90 ,91 ,92 ,93 ,94 ,95 ,96 ,97 ,98 ,99 ,100 ,101 ,102 ,103 ,104 ,105 ,106 ,107 ,108 ,109 ,110 ,111 ,112 ,113 ,114 ,115 ,116 ,117 ,118 ,119 ,120 ,121 ,122 ,123 ,124 ,125 ,126 ,127 ,128 ,129 ,130 ,131 ,132 ,133 ,134 ,135 ,136 ,137 ,138 ,139 ,140 ,141 ,142 ,143 ,144 ,145 ,146 ,147 ,148 ,149 ,
NUM CONSTRAINTS
0

ADDITIONAL CONSTRAINTS

METHOD: ant

PARAMETERS:
L: 100, alpha: 2, beta: 0.5, kappa: 10, lambda: 0.5, psi: 3, xi: 1, 
DELAUNAY: true
Αρχικές αμβλείες: 125
Αρχικά faces: 285
Δ. Μη κυρτό boundary με ευθύγραμμα τμήματα παράλληλα στους άξονες χωρίςm περιορισμούς.
The triangle is infinite 
pn:0 obtuses:125 steiners:3
pn:0 obtuses:125 steiners:4
pn:0 obtuses:125 steiners:5
pn:0 obtuses:125 steiners:6
The triangle is infinite 
pn:-0.052106 obtuses:124 steiners:7
pn:0 obtuses:124 steiners:8
pn:0 obtuses:124 steiners:9
pn:0.0762351 obtuses:125 steiners:10
pn:0.248835 obtuses:128 steiners:11
The triangle is infinite 
pn:0 obtuses:128 steiners:12
pn:0 obtuses:128 steiners:13
pn:0 obtuses:128 steiners:14
pn:0 obtuses:128 steiners:15
pn:-0.121527 obtuses:127 steiners:16
pn:0 obtuses:127 steiners:17
pn:0 obtuses:127 steiners:18
pn:0 obtuses:127 steiners:19
pn:0 obtuses:127 steiners:20
pn:0 obtuses:127 steiners:21
pn:0 obtuses:127 steiners:22
pn:0 obtuses:127 steiners:23
pn:0 obtuses:127 steiners:24
pn:0 obtuses:127 steiners:25
pn:0 obtuses:127 steiners:26
pn:0 obtuses:127 steiners:27
pn:0 obtuses:127 steiners:28
pn:0 obtuses:127 steiners:29
pn:0 obtuses:127 steiners:30
pn:0 obtuses:127 steiners:31
pn:0 obtuses:127 steiners:32
pn:0 obtuses:127 steiners:33
pn:0 obtuses:127 steiners:34
pn:0 obtuses:127 steiners:35
pn:0 obtuses:127 steiners:36
The triangle is infinite 
pn:-0.288521 obtuses:126 steiners:37
pn:0 obtuses:126 steiners:38
pn:0.606278 obtuses:128 steiners:39
pn:0.612383 obtuses:130 steiners:40
pn:0 obtuses:130 steiners:41
pn:0 obtuses:130 steiners:42
pn:0 obtuses:130 steiners:43
pn:0 obtuses:130 steiners:44
pn:0 obtuses:130 steiners:45
pn:0 obtuses:130 steiners:46
pn:0 obtuses:130 steiners:47
pn:0 obtuses:130 steiners:48
pn:0 obtuses:130 steiners:49
pn:0 obtuses:130 steiners:50
pn:0 obtuses:130 steiners:51
pn:0 obtuses:130 steiners:52
pn:0 obtuses:130 steiners:53
pn:0 obtuses:130 steiners:54
pn:0 obtuses:130 steiners:55
pn:0 obtuses:130 steiners:56
pn:0 obtuses:130 steiners:57
pn:0 obtuses:130 steiners:58
pn:0 obtuses:130 steiners:59
pn:0 obtuses:130 steiners:60
pn:0.463593 obtuses:131 steiners:61
pn:0 obtuses:131 steiners:62
pn:0 obtuses:131 steiners:63
pn:0 obtuses:131 steiners:64
pn:0 obtuses:131 steiners:65
pn:0 obtuses:131 steiners:66
pn:0 obtuses:131 steiners:67
pn:0 obtuses:131 steiners:68
pn:0.520906 obtuses:132 steiners:69
pn:1.04511 obtuses:134 steiners:70
pn:0 obtuses:134 steiners:71
pn:0 obtuses:134 steiners:72
pn:0 obtuses:134 steiners:73
pn:0 obtuses:134 steiners:74
pn:0 obtuses:134 steiners:75
pn:0 obtuses:134 steiners:76
pn:0 obtuses:134 steiners:77
pn:0 obtuses:134 steiners:78
pn:0 obtuses:134 steiners:79
The triangle is infinite 
pn:0 obtuses:134 steiners:80
pn:0 obtuses:134 steiners:81
pn:0 obtuses:134 steiners:82
pn:0 obtuses:134 steiners:83
The triangle is infinite 
pn:0 obtuses:134 steiners:84
pn:0 obtuses:134 steiners:85
pn:0 obtuses:134 steiners:86
pn:0 obtuses:134 steiners:87
pn:-0.655427 obtuses:133 steiners:88
pn:0 obtuses:133 steiners:89
pn:0 obtuses:133 steiners:90
pn:0 obtuses:133 steiners:91
pn:0 obtuses:133 steiners:92
pn:0 obtuses:133 steiners:93
pn:0 obtuses:133 steiners:94
pn:0 obtuses:133 steiners:95
pn:0 obtuses:133 steiners:96
pn:0 obtuses:133 steiners:97
pn:0 obtuses:133 steiners:98
pn:0 obtuses:133 steiners:99
pn:1.48509 obtuses:135 steiners:100
pn:0 obtuses:135 steiners:101
pn:0 obtuses:135 steiners:102
pn:0 obtuses:135 steiners:103
pn:0 obtuses:135 steiners:104
pn:0 obtuses:135 steiners:105
pn:0 obtuses:135 steiners:106
pn:0 obtuses:135 steiners:107
pn:0 obtuses:135 steiners:108
pn:0 obtuses:135 steiners:109
pn:0 obtuses:135 steiners:110
pn:0 obtuses:135 steiners:111
pn:0 obtuses:135 steiners:112
pn:0 obtuses:135 steiners:113
pn:-0.843865 obtuses:134 steiners:114
pn:0 obtuses:134 steiners:115
pn:0 obtuses:134 steiners:116
pn:0 obtuses:134 steiners:117
pn:0 obtuses:134 steiners:118
The triangle is infinite 
pn:0 obtuses:134 steiners:119
pn:0 obtuses:134 steiners:120
pn:0 obtuses:134 steiners:121
pn:0 obtuses:134 steiners:122
pn:0 obtuses:134 steiners:123
pn:0 obtuses:134 steiners:124
pn:0 obtuses:134 steiners:125
pn:0 obtuses:134 steiners:126
pn:0 obtuses:134 steiners:127
pn:0 obtuses:134 steiners:128
pn:0 obtuses:134 steiners:129
pn:0 obtuses:134 steiners:130
pn:0 obtuses:134 steiners:131
pn:0 obtuses:134 steiners:132
pn:0 obtuses:134 steiners:133
pn:1.9778 obtuses:136 steiners:134
pn:0 obtuses:136 steiners:135
pn:0 obtuses:136 steiners:136
pn:0 obtuses:136 steiners:137
pn:0 obtuses:136 steiners:138
pn:0 obtuses:136 steiners:139
pn:0 obtuses:136 steiners:140
The triangle is infinite 
The triangle is infinite 
pn:0 obtuses:136 steiners:141
pn:0 obtuses:136 steiners:142
pn:0 obtuses:136 steiners:143
pn:0 obtuses:136 steiners:144
pn:0 obtuses:136 steiners:145
pn:0 obtuses:136 steiners:146
pn:0 obtuses:136 steiners:147
pn:0 obtuses:136 steiners:148
pn:0 obtuses:136 steiners:149
The triangle is infinite 
pn:0 obtuses:136 steiners:150
pn:0 obtuses:136 steiners:151
pn:1.10989 obtuses:137 steiners:152
The triangle is infinite 
pn:0 obtuses:137 steiners:153
pn:0 obtuses:137 steiners:154
pn:0 obtuses:137 steiners:155
pn:0 obtuses:137 steiners:156
pn:0 obtuses:137 steiners:157
pn:2.28264 obtuses:139 steiners:158
pn:0 obtuses:139 steiners:159
pn:0 obtuses:139 steiners:160
pn:0 obtuses:139 steiners:161
The triangle is infinite 
The triangle is infinite 
pn:0 obtuses:139 steiners:162
pn:0 obtuses:139 steiners:163
pn:0 obtuses:139 steiners:164
pn:0 obtuses:139 steiners:165
pn:0 obtuses:139 steiners:166
pn:0 obtuses:139 steiners:167
pn:0 obtuses:139 steiners:168
pn:0 obtuses:139 steiners:169
pn:0 obtuses:139 steiners:170
The triangle is infinite 
The triangle is infinite 
pn:0 obtuses:139 steiners:171
pn:0 obtuses:139 steiners:172
pn:0 obtuses:139 steiners:173
pn:0 obtuses:139 steiners:174
pn:0 obtuses:139 steiners:175
pn:0 obtuses:139 steiners:176
pn:0 obtuses:139 steiners:177
pn:0 obtuses:139 steiners:178
pn:0 obtuses:139 steiners:179
pn:0 obtuses:139 steiners:180
pn:0 obtuses:139 steiners:181
pn:0 obtuses:139 steiners:182
pn:0 obtuses:139 steiners:183
pn:-1.32491 obtuses:138 steiners:184
The triangle is infinite 
pn:0 obtuses:138 steiners:185
pn:0 obtuses:138 steiners:186
pn:0 obtuses:138 steiners:187
The triangle is infinite 
pn:0 obtuses:138 steiners:188
pn:0 obtuses:138 steiners:189
pn:0 obtuses:138 steiners:190
pn:0 obtuses:138 steiners:191
pn:0 obtuses:138 steiners:192
pn:1.38989 obtuses:139 steiners:193
pn:0 obtuses:139 steiners:194
pn:0 obtuses:139 steiners:195
pn:2.7929 obtuses:141 steiners:196
Warning: The Steiner point is too close to an existing point and will not be inserted.
pn:0 obtuses:141 steiners:197
pn:0 obtuses:141 steiners:198
pn:0 obtuses:141 steiners:199
pn:0 obtuses:141 steiners:200
pn:0 obtuses:141 steiners:201
pn:0 obtuses:141 steiners:202
pn:0 obtuses:141 steiners:203
pn:0 obtuses:141 steiners:204
pn:0 obtuses:141 steiners:205
pn:0 obtuses:141 steiners:206
The triangle is infinite 
pn:-1.46975 obtuses:140 steiners:207
pn:0 obtuses:140 steiners:208
pn:0 obtuses:140 steiners:209
pn:0 obtuses:140 steiners:210
pn:0 obtuses:140 steiners:211
pn:0 obtuses:140 steiners:212
pn:0 obtuses:140 steiners:213
pn:0 obtuses:140 steiners:214
pn:0 obtuses:140 steiners:215
The triangle is infinite 
pn:0 obtuses:140 steiners:216
pn:0 obtuses:140 steiners:217
pn:0 obtuses:140 steiners:218
pn:0 obtuses:140 steiners:219
The triangle is infinite 
pn:0 obtuses:140 steiners:220
pn:0 obtuses:140 steiners:221
pn:0 obtuses:140 steiners:222
pn:0 obtuses:140 steiners:223
pn:0 obtuses:140 steiners:224
pn:0 obtuses:140 steiners:225
pn:0 obtuses:140 steiners:226
pn:0 obtuses:140 steiners:227
pn:0 obtuses:140 steiners:228
pn:0 obtuses:140 steiners:229
pn:0 obtuses:140 steiners:230
pn:0 obtuses:140 steiners:231
pn:0 obtuses:140 steiners:232
pn:0 obtuses:140 steiners:233
The triangle is infinite 
pn:0 obtuses:140 steiners:234
pn:0 obtuses:140 steiners:235
pn:0 obtuses:140 steiners:236
pn:0 obtuses:140 steiners:237
pn:0 obtuses:140 steiners:238
pn:0 obtuses:140 steiners:239
pn:0 obtuses:140 steiners:240
pn:0 obtuses:140 steiners:241
pn:0 obtuses:140 steiners:242
pn:0 obtuses:140 steiners:243
pn:0 obtuses:140 steiners:244
pn:3.46814 obtuses:142 steiners:245
pn:0 obtuses:142 steiners:246
pn:0 obtuses:142 steiners:247
pn:0 obtuses:142 steiners:248
pn:0 obtuses:142 steiners:249
pn:0 obtuses:142 steiners:250
pn:-1.77032 obtuses:141 steiners:251
pn:0 obtuses:141 steiners:252
pn:0 obtuses:141 steiners:253
pn:0 obtuses:141 steiners:254
pn:0 obtuses:141 steiners:255
pn:0 obtuses:141 steiners:256
pn:0 obtuses:141 steiners:257
pn:0 obtuses:141 steiners:258
pn:0 obtuses:141 steiners:259
pn:0 obtuses:141 steiners:260
pn:0 obtuses:141 steiners:261
The triangle is infinite 
pn:0 obtuses:141 steiners:262
pn:0 obtuses:141 steiners:263
pn:3.71132 obtuses:143 steiners:264
pn:3.67367 obtuses:145 steiners:265
The triangle is infinite 
pn:-1.83738 obtuses:144 steiners:266
pn:-1.85715 obtuses:143 steiners:267
pn:0 obtuses:143 steiners:268
pn:3.72922 obtuses:145 steiners:269
pn:0 obtuses:145 steiners:270
pn:0 obtuses:145 steiners:271
pn:0 obtuses:145 steiners:272
The triangle is infinite 
pn:0 obtuses:145 steiners:273
pn:0 obtuses:145 steiners:274
pn:0 obtuses:145 steiners:275
pn:0 obtuses:145 steiners:276
pn:0 obtuses:145 steiners:277
pn:0 obtuses:145 steiners:278
pn:0 obtuses:145 steiners:279
pn:0 obtuses:145 steiners:280
pn:0 obtuses:145 steiners:281
pn:0 obtuses:145 steiners:282
pn:0 obtuses:145 steiners:283
pn:1.94846 obtuses:146 steiners:284
pn:0 obtuses:146 steiners:285
pn:0 obtuses:146 steiners:286
pn:0 obtuses:146 steiners:287
pn:0 obtuses:146 steiners:288
pn:0 obtuses:146 steiners:289
pn:0 obtuses:146 steiners:290
pn:0 obtuses:146 steiners:291
pn:0 obtuses:146 steiners:292
pn:0 obtuses:146 steiners:293
pn:0 obtuses:146 steiners:294
pn:0 obtuses:146 steiners:295
pn:0 obtuses:146 steiners:296
pn:0 obtuses:146 steiners:297
Μέσος ρυθμός σύγκλισης: 0.0704425
Ενέργεια τριγωνοποίσης που δεν συγκλίνει: 440.5
Method: Ant Colony: 
	Original CDT had: 125/285 obtuse faces
	We inserted 297 steiner points:
		Middle of largest edge: 8
		Circumcenter: 9
		Projection: 278
		Polygon Cnetroid: 0
Final obtuse faces: 146/868
Τελικές αμβλείες: 146
Τελικές faces: 868
