Input file: .vscode/temp_2_ant.json
Output file: .vscode/output_2_ant.json
simple-polygon-exterior-20_60_28a85662
60

POINTS_X
2207 ,1854 ,1396 ,946 ,899 ,798 ,986 ,1017 ,1044 ,1530 ,1293 ,1083 ,820 ,854 ,765 ,199 ,0 ,26 ,205 ,178 ,171 ,124 ,8 ,29 ,309 ,443 ,691 ,679 ,812 ,1313 ,1343 ,1646 ,1824 ,2068 ,2218 ,2351 ,2455 ,2538 ,3395 ,3485 ,3572 ,3722 ,3078 ,3064 ,3160 ,3199 ,3380 ,3632 ,3690 ,3715 ,3821 ,3925 ,3550 ,3283 ,3235 ,3085 ,2976 ,2636 ,2485 ,2562 ,
POINTS_Y
118 ,24 ,134 ,130 ,144 ,178 ,284 ,255 ,199 ,690 ,791 ,470 ,456 ,558 ,604 ,47 ,281 ,289 ,725 ,831 ,1369 ,1437 ,1444 ,1784 ,1541 ,1434 ,1639 ,1210 ,1053 ,1720 ,1732 ,1383 ,1559 ,1580 ,1201 ,1476 ,1665 ,1736 ,1744 ,1712 ,1736 ,1369 ,1495 ,1368 ,891 ,912 ,855 ,845 ,909 ,1015 ,790 ,467 ,503 ,318 ,205 ,0 ,41 ,629 ,485 ,16 ,
REGION_BOUND
16 ,15 ,55 ,51 ,41 ,40 ,38 ,23 ,22 ,
NUM CONSTRAINTS
42

ADDITIONAL CONSTRAINTS
[0,1] ,[1,2] ,[4,5] ,[5,6] ,[6,7] ,[7,8] ,[8,9] ,[9,10] ,[11,12] ,[13,14] ,[14,15] ,[16,17] ,[17,18] ,[18,19] ,[19,20] ,[21,22] ,[23,24] ,[24,25] ,[27,28] ,[28,29] ,[29,30] ,[30,31] ,[31,32] ,[32,33] ,[34,35] ,[35,36] ,[38,39] ,[39,40] ,[41,42] ,[43,44] ,[44,45] ,[45,46] ,[46,47] ,[47,48] ,[48,49] ,[50,51] ,[51,52] ,[53,54] ,[55,56] ,[56,57] ,[57,58] ,[58,59] ,
METHOD: ant

PARAMETERS:
L: 100, alpha: 2, beta: 0.5, kappa: 10, lambda: 0.5, psi: 3, xi: 1, 
DELAUNAY: true
Αρχικές αμβλείες: 76
Αρχικά faces: 109
Β. ΚΥΡΤΟ ΠΕΡΙΒΛΗΜΑ (ΑΝΟΙΧΤΟ)
pn:0.0640634 obtuses:78 steiners:3
pn:0.0880062 obtuses:80 steiners:4
pn:0.110658 obtuses:82 steiners:5
pn:0.132171 obtuses:84 steiners:6
pn:0.227643 obtuses:87 steiners:7
pn:0 obtuses:87 steiners:8
pn:0.0970318 obtuses:88 steiners:9
pn:0.213295 obtuses:90 steiners:10
pn:0 obtuses:90 steiners:11
pn:0.376845 obtuses:93 steiners:12
pn:0 obtuses:93 steiners:13
pn:0 obtuses:93 steiners:14
pn:0 obtuses:93 steiners:15
pn:0.329685 obtuses:95 steiners:16
pn:0.343657 obtuses:97 steiners:17
pn:0.532891 obtuses:100 steiners:18
pn:0 obtuses:100 steiners:19
pn:0 obtuses:100 steiners:20
pn:0 obtuses:100 steiners:21
pn:0 obtuses:100 steiners:22
pn:0 obtuses:100 steiners:23
pn:0.465292 obtuses:102 steiners:24
pn:0.475677 obtuses:104 steiners:25
pn:0.485667 obtuses:106 steiners:26
pn:0.495283 obtuses:108 steiners:27
pn:0.504546 obtuses:110 steiners:28
pn:0.513475 obtuses:112 steiners:29
pn:0.522088 obtuses:114 steiners:30
pn:0 obtuses:114 steiners:31
pn:0 obtuses:114 steiners:32
pn:0.844137 obtuses:117 steiners:33
pn:0.848084 obtuses:120 steiners:34
pn:0 obtuses:120 steiners:35
pn:0 obtuses:120 steiners:36
pn:0 obtuses:120 steiners:37
pn:0.619812 obtuses:122 steiners:38
pn:-0.316856 obtuses:121 steiners:39
pn:0 obtuses:121 steiners:40
pn:0 obtuses:121 steiners:41
pn:0.68031 obtuses:123 steiners:42
pn:0 obtuses:123 steiners:43
pn:0 obtuses:123 steiners:44
pn:0 obtuses:123 steiners:45
pn:0 obtuses:123 steiners:46
pn:0.749987 obtuses:125 steiners:47
pn:0 obtuses:125 steiners:48
pn:0 obtuses:125 steiners:49
pn:0 obtuses:125 steiners:50
pn:0 obtuses:125 steiners:51
pn:0 obtuses:125 steiners:52
pn:0 obtuses:125 steiners:53
pn:-0.429709 obtuses:124 steiners:54
pn:0 obtuses:124 steiners:55
pn:0 obtuses:124 steiners:56
pn:-0.45748 obtuses:123 steiners:57
pn:0 obtuses:123 steiners:58
pn:0 obtuses:123 steiners:59
pn:0 obtuses:123 steiners:60
pn:1.45787 obtuses:126 steiners:61
pn:-0.490032 obtuses:125 steiners:62
pn:-0.502 obtuses:124 steiners:63
pn:0.510032 obtuses:125 steiners:64
pn:0 obtuses:125 steiners:65
pn:0 obtuses:125 steiners:66
pn:1.05556 obtuses:127 steiners:67
pn:0 obtuses:127 steiners:68
pn:1.07032 obtuses:129 steiners:69
pn:1.06923 obtuses:131 steiners:70
pn:0 obtuses:131 steiners:71
pn:0 obtuses:131 steiners:72
pn:0 obtuses:131 steiners:73
pn:0 obtuses:131 steiners:74
pn:0 obtuses:131 steiners:75
pn:1.70948 obtuses:134 steiners:76
pn:0 obtuses:134 steiners:77
pn:0 obtuses:134 steiners:78
pn:0 obtuses:134 steiners:79
pn:0.591073 obtuses:135 steiners:80
pn:0.594091 obtuses:136 steiners:81
pn:1.18979 obtuses:138 steiners:82
pn:-0.599995 obtuses:137 steiners:83
pn:-0.611717 obtuses:136 steiners:84
pn:0 obtuses:136 steiners:85
pn:1.24818 obtuses:138 steiners:86
pn:1.24461 obtuses:140 steiners:87
pn:-0.627236 obtuses:139 steiners:88
pn:-0.638985 obtuses:138 steiners:89
pn:0 obtuses:138 steiners:90
pn:0 obtuses:138 steiners:91
pn:0 obtuses:138 steiners:92
pn:1.33095 obtuses:140 steiners:93
pn:-0.670247 obtuses:139 steiners:94
pn:-0.682307 obtuses:138 steiners:95
pn:0 obtuses:138 steiners:96
pn:0 obtuses:138 steiners:97
pn:0 obtuses:138 steiners:98
pn:1.41728 obtuses:140 steiners:99
pn:-0.713259 obtuses:139 steiners:100
pn:0 obtuses:139 steiners:101
pn:0 obtuses:139 steiners:102
pn:0 obtuses:139 steiners:103
pn:1.47859 obtuses:141 steiners:104
pn:0 obtuses:141 steiners:105
pn:0 obtuses:141 steiners:106
pn:0 obtuses:141 steiners:107
pn:0 obtuses:141 steiners:108
pn:1.52818 obtuses:143 steiners:109
pn:0 obtuses:143 steiners:110
pn:0 obtuses:143 steiners:111
pn:0 obtuses:143 steiners:112
pn:1.56251 obtuses:145 steiners:113
pn:-0.785465 obtuses:144 steiners:114
pn:-0.797908 obtuses:143 steiners:115
pn:0 obtuses:143 steiners:116
pn:0 obtuses:143 steiners:117
pn:2.43952 obtuses:146 steiners:118
pn:0 obtuses:146 steiners:119
pn:0 obtuses:146 steiners:120
pn:0 obtuses:146 steiners:121
pn:1.65308 obtuses:148 steiners:122
pn:0 obtuses:148 steiners:123
pn:0 obtuses:148 steiners:124
pn:1.67116 obtuses:150 steiners:125
pn:1.66227 obtuses:152 steiners:126
pn:0 obtuses:152 steiners:127
pn:0.836064 obtuses:153 steiners:128
pn:1.66885 obtuses:155 steiners:129
pn:0 obtuses:155 steiners:130
pn:0 obtuses:155 steiners:131
pn:0 obtuses:155 steiners:132
pn:0 obtuses:155 steiners:133
pn:0 obtuses:155 steiners:134
pn:1.72437 obtuses:157 steiners:135
pn:-0.865814 obtuses:156 steiners:136
pn:0 obtuses:156 steiners:137
pn:0 obtuses:156 steiners:138
pn:0 obtuses:156 steiners:139
pn:1.77709 obtuses:158 steiners:140
pn:0 obtuses:158 steiners:141
pn:0 obtuses:158 steiners:142
pn:1.79247 obtuses:160 steiners:143
pn:0 obtuses:160 steiners:144
pn:0 obtuses:160 steiners:145
pn:2.70285 obtuses:163 steiners:146
pn:-0.901538 obtuses:162 steiners:147
pn:0 obtuses:162 steiners:148
Warning: The Steiner point is too close to an existing point and will not be inserted.
pn:1.8221 obtuses:164 steiners:149
pn:1.81214 obtuses:166 steiners:150
pn:1.80241 obtuses:168 steiners:151
pn:0 obtuses:168 steiners:152
pn:0 obtuses:168 steiners:153
pn:1.81658 obtuses:170 steiners:154
pn:-0.911504 obtuses:169 steiners:155
pn:0 obtuses:169 steiners:156
pn:0 obtuses:169 steiners:157
pn:0 obtuses:169 steiners:158
pn:0 obtuses:169 steiners:159
pn:0 obtuses:169 steiners:160
pn:0.946902 obtuses:170 steiners:161
pn:2.82514 obtuses:173 steiners:162
pn:0 obtuses:173 steiners:163
pn:0.942363 obtuses:174 steiners:164
pn:1.88001 obtuses:176 steiners:165
pn:1.87007 obtuses:178 steiners:166
pn:-0.938028 obtuses:177 steiners:167
pn:0 obtuses:177 steiners:168
pn:0 obtuses:177 steiners:169
pn:0 obtuses:177 steiners:170
pn:1.91575 obtuses:179 steiners:171
pn:0 obtuses:179 steiners:172
pn:0 obtuses:179 steiners:173
pn:0 obtuses:179 steiners:174
pn:1.9389 obtuses:181 steiners:175
pn:-0.972299 obtuses:180 steiners:176
pn:0 obtuses:180 steiners:177
pn:0 obtuses:180 steiners:178
pn:1.97239 obtuses:182 steiners:179
pn:0 obtuses:182 steiners:180
pn:2.95101 obtuses:185 steiners:181
Warning: The Steiner point is too close to an existing point and will not be inserted.
pn:0 obtuses:185 steiners:182
pn:0 obtuses:185 steiners:183
pn:-0.99458 obtuses:184 steiners:184
pn:0 obtuses:184 steiners:185
pn:0 obtuses:184 steiners:186
pn:1.01084 obtuses:185 steiners:187
pn:2.01614 obtuses:187 steiners:188
pn:2.00533 obtuses:189 steiners:189
pn:0 obtuses:189 steiners:190
pn:0 obtuses:189 steiners:191
pn:2.0158 obtuses:191 steiners:192
pn:0 obtuses:191 steiners:193
pn:0 obtuses:191 steiners:194
pn:0 obtuses:191 steiners:195
pn:2.03647 obtuses:193 steiners:196
pn:0 obtuses:193 steiners:197
pn:0 obtuses:193 steiners:198
pn:-1.03117 obtuses:192 steiners:199
pn:-1.04178 obtuses:191 steiners:200
pn:0 obtuses:191 steiners:201
pn:0 obtuses:191 steiners:202
pn:0 obtuses:191 steiners:203
pn:0 obtuses:191 steiners:204
pn:0 obtuses:191 steiners:205
pn:0 obtuses:191 steiners:206
pn:0 obtuses:191 steiners:207
pn:2.16147 obtuses:193 steiners:208
pn:0 obtuses:193 steiners:209
pn:2.15981 obtuses:195 steiners:210
pn:3.2138 obtuses:198 steiners:211
pn:-1.07089 obtuses:197 steiners:212
pn:2.14648 obtuses:199 steiners:213
pn:0 obtuses:199 steiners:214
pn:0 obtuses:199 steiners:215
Warning: The Steiner point is too close to an existing point and will not be inserted.
pn:2.15501 obtuses:201 steiners:216
pn:0 obtuses:201 steiners:217
pn:3.22228 obtuses:204 steiners:218
pn:0 obtuses:204 steiners:219
pn:0 obtuses:204 steiners:220
pn:0 obtuses:204 steiners:221
pn:3.23363 obtuses:207 steiners:222
pn:0 obtuses:207 steiners:223
pn:0 obtuses:207 steiners:224
pn:2.15867 obtuses:209 steiners:225
pn:0 obtuses:209 steiners:226
pn:0 obtuses:209 steiners:227
pn:-1.09113 obtuses:208 steiners:228
pn:0 obtuses:208 steiners:229
pn:0 obtuses:208 steiners:230
pn:3.30077 obtuses:211 steiners:231
pn:-1.09976 obtuses:210 steiners:232
pn:0 obtuses:210 steiners:233
pn:-1.11456 obtuses:209 steiners:234
pn:-1.1247 obtuses:208 steiners:235
pn:0 obtuses:208 steiners:236
pn:1.13429 obtuses:209 steiners:237
pn:2.26192 obtuses:211 steiners:238
pn:0 obtuses:211 steiners:239
pn:0 obtuses:211 steiners:240
pn:0 obtuses:211 steiners:241
Warning: The Steiner point is too close to an existing point and will not be inserted.
pn:-1.14727 obtuses:210 steiners:242
pn:0 obtuses:210 steiners:243
pn:0 obtuses:210 steiners:244
pn:0 obtuses:210 steiners:245
pn:0 obtuses:210 steiners:246
pn:0 obtuses:210 steiners:247
pn:1.17577 obtuses:211 steiners:248
pn:2.34435 obtuses:213 steiners:249
pn:0 obtuses:213 steiners:250
pn:0 obtuses:213 steiners:251
pn:0 obtuses:213 steiners:252
Warning: The Steiner point is too close to an existing point and will not be inserted.
pn:0 obtuses:213 steiners:253
pn:0 obtuses:213 steiners:254
pn:0 obtuses:213 steiners:255
pn:1.19672 obtuses:214 steiners:256
pn:2.38606 obtuses:216 steiners:257
pn:-1.1949 obtuses:215 steiners:258
pn:2.39353 obtuses:217 steiners:259
pn:-1.19861 obtuses:216 steiners:260
pn:0 obtuses:216 steiners:261
pn:0 obtuses:216 steiners:262
pn:0 obtuses:216 steiners:263
pn:0 obtuses:216 steiners:264
pn:-1.22738 obtuses:215 steiners:265
pn:0 obtuses:215 steiners:266
pn:0 obtuses:215 steiners:267
pn:0 obtuses:215 steiners:268
pn:0 obtuses:215 steiners:269
pn:0 obtuses:215 steiners:270
pn:2.50464 obtuses:217 steiners:271
pn:3.72774 obtuses:220 steiners:272
pn:0 obtuses:220 steiners:273
pn:-1.24601 obtuses:219 steiners:274
pn:0 obtuses:219 steiners:275
pn:0 obtuses:219 steiners:276
pn:0 obtuses:219 steiners:277
pn:0 obtuses:219 steiners:278
pn:0 obtuses:219 steiners:279
pn:0 obtuses:219 steiners:280
pn:2.55001 obtuses:221 steiners:281
pn:2.53605 obtuses:223 steiners:282
pn:0 obtuses:223 steiners:283
pn:0 obtuses:223 steiners:284
pn:0 obtuses:223 steiners:285
pn:-1.28315 obtuses:222 steiners:286
pn:0 obtuses:222 steiners:287
pn:0 obtuses:222 steiners:288
pn:1.29663 obtuses:223 steiners:289
pn:0 obtuses:223 steiners:290
pn:0 obtuses:223 steiners:291
pn:-1.31011 obtuses:222 steiners:292
pn:0 obtuses:222 steiners:293
pn:0 obtuses:222 steiners:294
pn:-1.32957 obtuses:221 steiners:295
pn:0 obtuses:221 steiners:296
pn:0 obtuses:221 steiners:297
pn:2.6802 obtuses:223 steiners:298
pn:0 obtuses:223 steiners:299
pn:0 obtuses:223 steiners:300
pn:2.68305 obtuses:225 steiners:301
pn:2.66816 obtuses:227 steiners:302
Μέσος ρυθμός σύγκλισης: 0.351521
Ενέργεια τριγωνοποίσης που δεν συγκλίνει: 605
Method: Ant Colony: 
	Original CDT had: 76/109 obtuse faces
	We inserted 302 steiner points:
		Middle of largest edge: 10
		Circumcenter: 84
		Projection: 202
		Polygon Cnetroid: 0
Final obtuse faces: 227/688
Τελικές αμβλείες: 227
Τελικές faces: 688
