Input file: .vscode/temp_5_sa.json
Output file: .vscode/output_5_sa.json
simple-polygon_100_cb23308c
100

POINTS_X
14975 ,14775 ,14675 ,12225 ,12225 ,12075 ,12075 ,12075 ,12075 ,11500 ,10850 ,10850 ,10900 ,11800 ,12100 ,12425 ,12425 ,11700 ,11500 ,8425 ,8225 ,8125 ,8675 ,8675 ,8675 ,8675 ,8675 ,8675 ,8675 ,8675 ,8675 ,8525 ,8425 ,5550 ,5525 ,5675 ,5675 ,5525 ,5525 ,5150 ,4950 ,4300 ,4300 ,5875 ,5875 ,5875 ,5150 ,4300 ,4300 ,4300 ,4500 ,4950 ,5250 ,5525 ,5525 ,5525 ,5675 ,5675 ,5550 ,5875 ,8675 ,8675 ,8675 ,8675 ,8675 ,8675 ,8675 ,10850 ,10850 ,10850 ,10850 ,10900 ,11500 ,12075 ,12075 ,12075 ,12225 ,12100 ,12425 ,12425 ,12425 ,15225 ,15225 ,15225 ,15225 ,15225 ,15225 ,15225 ,15075 ,14775 ,14675 ,15225 ,15225 ,15225 ,15225 ,15225 ,15225 ,15225 ,15225 ,15075 ,
POINTS_Y
10150 ,10150 ,10150 ,9375 ,9275 ,9125 ,9225 ,9425 ,9525 ,10600 ,9400 ,9175 ,8875 ,8875 ,8875 ,6925 ,6775 ,6150 ,6150 ,5700 ,5700 ,5700 ,7700 ,7800 ,7900 ,8000 ,8100 ,8200 ,8300 ,8400 ,8500 ,10150 ,10150 ,8875 ,9225 ,9275 ,9375 ,9425 ,9525 ,10600 ,10600 ,9400 ,9175 ,7075 ,6925 ,6775 ,6150 ,5050 ,4950 ,4725 ,4425 ,4425 ,4425 ,4775 ,4975 ,5075 ,4925 ,4825 ,4425 ,2625 ,3350 ,3450 ,3550 ,3650 ,3750 ,3850 ,4050 ,5050 ,4950 ,4825 ,4725 ,4425 ,4425 ,4675 ,4775 ,5075 ,4825 ,4425 ,2775 ,2625 ,2475 ,3150 ,3450 ,3550 ,3650 ,3750 ,3850 ,4050 ,5700 ,5700 ,5700 ,7600 ,7900 ,8000 ,8100 ,8200 ,8300 ,8400 ,8500 ,10150 ,
REGION_BOUND
0 ,1 ,2 ,3 ,4 ,5 ,6 ,7 ,8 ,9 ,10 ,11 ,12 ,13 ,14 ,15 ,16 ,17 ,18 ,19 ,20 ,21 ,22 ,23 ,24 ,25 ,26 ,27 ,28 ,29 ,30 ,31 ,32 ,33 ,34 ,35 ,36 ,37 ,38 ,39 ,40 ,41 ,42 ,43 ,44 ,45 ,46 ,47 ,48 ,49 ,50 ,51 ,52 ,53 ,54 ,55 ,56 ,57 ,58 ,59 ,60 ,61 ,62 ,63 ,64 ,65 ,66 ,67 ,68 ,69 ,70 ,71 ,72 ,73 ,74 ,75 ,76 ,77 ,78 ,79 ,80 ,81 ,82 ,83 ,84 ,85 ,86 ,87 ,88 ,89 ,90 ,91 ,92 ,93 ,94 ,95 ,96 ,97 ,98 ,99 ,
NUM CONSTRAINTS
0

ADDITIONAL CONSTRAINTS

METHOD: sa

PARAMETERS:
L: 100, alpha: 2, beta: 0.5, kappa: 10, lambda: 0.5, psi: 3, xi: 1, 
DELAUNAY: true
Αρχικές αμβλείες: 139
Αρχικά faces: 171
Ε. Μη κυρτό boundary, ακανόνιστο, που δεν εντάσσεται στις κατηγορίες Α-Δ. 
Αρχική Ενέργεια: 278
pn:0 obtuses:139 steiners:3
pn:0 obtuses:139 steiners:4
pn:0 obtuses:139 steiners:5
pn:0 obtuses:139 steiners:6
pn:0 obtuses:139 steiners:7
pn:-0.0540715 obtuses:138 steiners:8
pn:0 obtuses:138 steiners:9
pn:0 obtuses:138 steiners:10
pn:0 obtuses:138 steiners:11
pn:0 obtuses:138 steiners:12
pn:0 obtuses:138 steiners:13
pn:0 obtuses:138 steiners:14
pn:0 obtuses:138 steiners:15
Μέσος ρυθμός σύγκλισης: -0.00360477
Τελικές αμβλείες: 138
Τελικές faces: 201
