Input file: .vscode/temp_150_ant.json
Output file: .vscode/output_150_ant.json
simple-polygon-exterior-20_60_28a85662
60

POINTS_X
2207 ,1854 ,1396 ,946 ,899 ,798 ,986 ,1017 ,1044 ,1530 ,1293 ,1083 ,820 ,854 ,765 ,199 ,0 ,26 ,205 ,178 ,171 ,124 ,8 ,29 ,309 ,443 ,691 ,679 ,812 ,1313 ,1343 ,1646 ,1824 ,2068 ,2218 ,2351 ,2455 ,2538 ,3395 ,3485 ,3572 ,3722 ,3078 ,3064 ,3160 ,3199 ,3380 ,3632 ,3690 ,3715 ,3821 ,3925 ,3550 ,3283 ,3235 ,3085 ,2976 ,2636 ,2485 ,2562 ,
POINTS_Y
118 ,24 ,134 ,130 ,144 ,178 ,284 ,255 ,199 ,690 ,791 ,470 ,456 ,558 ,604 ,47 ,281 ,289 ,725 ,831 ,1369 ,1437 ,1444 ,1784 ,1541 ,1434 ,1639 ,1210 ,1053 ,1720 ,1732 ,1383 ,1559 ,1580 ,1201 ,1476 ,1665 ,1736 ,1744 ,1712 ,1736 ,1369 ,1495 ,1368 ,891 ,912 ,855 ,845 ,909 ,1015 ,790 ,467 ,503 ,318 ,205 ,0 ,41 ,629 ,485 ,16 ,
REGION_BOUND
16 ,15 ,55 ,51 ,41 ,40 ,38 ,23 ,22 ,
NUM CONSTRAINTS
42

ADDITIONAL CONSTRAINTS
[0,1] ,[1,2] ,[4,5] ,[5,6] ,[6,7] ,[7,8] ,[8,9] ,[9,10] ,[11,12] ,[13,14] ,[14,15] ,[16,17] ,[17,18] ,[18,19] ,[19,20] ,[21,22] ,[23,24] ,[24,25] ,[27,28] ,[28,29] ,[29,30] ,[30,31] ,[31,32] ,[32,33] ,[34,35] ,[35,36] ,[38,39] ,[39,40] ,[41,42] ,[43,44] ,[44,45] ,[45,46] ,[46,47] ,[47,48] ,[48,49] ,[50,51] ,[51,52] ,[53,54] ,[55,56] ,[56,57] ,[57,58] ,[58,59] ,
METHOD: ant

PARAMETERS:
L: 150, alpha: 2, beta: 5, kappa: 10, lambda: 0.5, psi: 3, xi: 1, 
DELAUNAY: true
Αρχικές αμβλείες: 76
Αρχικά faces: 109
Β. ΚΥΡΤΟ ΠΕΡΙΒΛΗΜΑ (ΑΝΟΙΧΤΟ)
pn:0 obtuses:76 steiners:3
pn:0 obtuses:76 steiners:4
pn:0 obtuses:76 steiners:5
pn:0.142471 obtuses:78 steiners:6
pn:0.164241 obtuses:80 steiners:7
pn:0.18492 obtuses:82 steiners:8
pn:0.204593 obtuses:84 steiners:9
pn:-0.113669 obtuses:83 steiners:10
pn:0 obtuses:83 steiners:11
pn:0 obtuses:83 steiners:12
pn:0.297474 obtuses:85 steiners:13
pn:0.313824 obtuses:87 steiners:14
pn:0.329429 obtuses:89 steiners:15
pn:0.344339 obtuses:91 steiners:16
pn:0.535018 obtuses:94 steiners:17
pn:0 obtuses:94 steiners:18
pn:0 obtuses:94 steiners:19
pn:0 obtuses:94 steiners:20
pn:0 obtuses:94 steiners:21
pn:0.227474 obtuses:95 steiners:22
pn:0.46869 obtuses:97 steiners:23
pn:0 obtuses:97 steiners:24
pn:0 obtuses:97 steiners:25
pn:0.52036 obtuses:99 steiners:26
pn:0.529955 obtuses:101 steiners:27
pn:0.539174 obtuses:103 steiners:28
pn:0.548038 obtuses:105 steiners:29
pn:0.279596 obtuses:106 steiners:30
pn:0.570059 obtuses:108 steiners:31
pn:0.577949 obtuses:110 steiners:32
pn:0 obtuses:110 steiners:33
pn:0 obtuses:110 steiners:34
pn:0 obtuses:110 steiners:35
pn:0.639615 obtuses:112 steiners:36
pn:0.645994 obtuses:114 steiners:37
pn:-0.330379 obtuses:113 steiners:38
pn:0 obtuses:113 steiners:39
pn:0.692963 obtuses:115 steiners:40
pn:0 obtuses:115 steiners:41
pn:0 obtuses:115 steiners:42
pn:0 obtuses:115 steiners:43
pn:0.749986 obtuses:117 steiners:44
pn:0.754224 obtuses:119 steiners:45
pn:0.75832 obtuses:121 steiners:46
pn:0 obtuses:121 steiners:47
pn:0.390934 obtuses:122 steiners:48
pn:0.788607 obtuses:124 steiners:49
pn:0.79199 obtuses:126 steiners:50
pn:0.795266 obtuses:128 steiners:51
pn:-0.403911 obtuses:127 steiners:52
pn:0 obtuses:127 steiners:53
pn:0 obtuses:127 steiners:54
pn:0 obtuses:127 steiners:55
pn:0.867182 obtuses:129 steiners:56
pn:-0.439679 obtuses:128 steiners:57
pn:0 obtuses:128 steiners:58
pn:0 obtuses:128 steiners:59
pn:0 obtuses:128 steiners:60
pn:0 obtuses:128 steiners:61
pn:0.953486 obtuses:130 steiners:62
pn:-0.482618 obtuses:129 steiners:63
pn:-0.494156 obtuses:128 steiners:64
pn:0 obtuses:128 steiners:65
pn:0 obtuses:128 steiners:66
pn:1.03101 obtuses:130 steiners:67
pn:-0.521229 obtuses:129 steiners:68
pn:0 obtuses:129 steiners:69
pn:1.06923 obtuses:131 steiners:70
pn:0 obtuses:131 steiners:71
pn:0 obtuses:131 steiners:72
pn:0 obtuses:131 steiners:73
pn:0 obtuses:131 steiners:74
pn:1.12879 obtuses:133 steiners:75
pn:1.68406 obtuses:136 steiners:76
pn:0 obtuses:136 steiners:77
pn:0 obtuses:136 steiners:78
pn:1.14599 obtuses:138 steiners:79
pn:0 obtuses:138 steiners:80
pn:0 obtuses:138 steiners:81
pn:0 obtuses:138 steiners:82
pn:0 obtuses:138 steiners:83
pn:1.20145 obtuses:140 steiners:84
pn:1.79157 obtuses:143 steiners:85
pn:0 obtuses:143 steiners:86
pn:0 obtuses:143 steiners:87
pn:1.21528 obtuses:145 steiners:88
pn:1.21233 obtuses:147 steiners:89
pn:-0.610918 obtuses:146 steiners:90
pn:-0.621989 obtuses:145 steiners:91
pn:0 obtuses:145 steiners:92
pn:1.26713 obtuses:147 steiners:93
pn:-0.638222 obtuses:146 steiners:94
pn:1.28572 obtuses:148 steiners:95
pn:1.28189 obtuses:150 steiners:96
pn:-0.645482 obtuses:149 steiners:97
pn:0 obtuses:149 steiners:98
pn:0 obtuses:149 steiners:99
pn:-0.670031 obtuses:148 steiners:100
pn:0 obtuses:148 steiners:101
pn:0 obtuses:148 steiners:102
pn:0.690233 obtuses:149 steiners:103
pn:1.38001 obtuses:151 steiners:104
pn:1.37501 obtuses:153 steiners:105
pn:0 obtuses:153 steiners:106
pn:0 obtuses:153 steiners:107
pn:0 obtuses:153 steiners:108
pn:1.4091 obtuses:155 steiners:109
pn:0 obtuses:155 steiners:110
pn:0 obtuses:155 steiners:111
pn:0 obtuses:155 steiners:112
pn:2.1566 obtuses:158 steiners:113
pn:0 obtuses:158 steiners:114
pn:0 obtuses:158 steiners:115
pn:1.45284 obtuses:160 steiners:116
pn:1.44721 obtuses:162 steiners:117
pn:2.15601 obtuses:165 steiners:118
pn:0 obtuses:165 steiners:119
pn:0.722052 obtuses:166 steiners:120
pn:0 obtuses:166 steiners:121
pn:0 obtuses:166 steiners:122
pn:1.46708 obtuses:168 steiners:123
pn:0 obtuses:168 steiners:124
pn:0 obtuses:168 steiners:125
pn:-0.749252 obtuses:167 steiners:126
pn:0 obtuses:167 steiners:127
pn:0 obtuses:167 steiners:128
pn:0 obtuses:167 steiners:129
pn:1.54168 obtuses:169 steiners:130
pn:0.76991 obtuses:170 steiners:131
pn:-0.77581 obtuses:169 steiners:132
pn:1.55883 obtuses:171 steiners:133
pn:2.32179 obtuses:174 steiners:134
pn:-0.775215 obtuses:173 steiners:135
pn:0 obtuses:173 steiners:136
pn:0 obtuses:173 steiners:137
pn:1.58047 obtuses:175 steiners:138
pn:0 obtuses:175 steiners:139
pn:0 obtuses:175 steiners:140
pn:0.800569 obtuses:176 steiners:141
pn:1.59888 obtuses:178 steiners:142
pn:-0.802816 obtuses:177 steiners:143
pn:0 obtuses:177 steiners:144
pn:0 obtuses:177 steiners:145
pn:1.63484 obtuses:179 steiners:146
pn:0 obtuses:179 steiners:147
pn:0 obtuses:179 steiners:148
pn:0.827297 obtuses:180 steiners:149
pn:1.65194 obtuses:182 steiners:150
pn:0 obtuses:182 steiners:151
pn:0 obtuses:182 steiners:152
pn:1.66668 obtuses:184 steiners:153
pn:-0.836511 obtuses:183 steiners:154
pn:1.67936 obtuses:185 steiners:155
pn:0 obtuses:185 steiners:156
pn:0 obtuses:185 steiners:157
pn:2.53356 obtuses:188 steiners:158
pn:0 obtuses:188 steiners:159
pn:2.52511 obtuses:191 steiners:160
pn:0 obtuses:191 steiners:161
pn:0 obtuses:191 steiners:162
pn:1.69272 obtuses:193 steiners:163
pn:1.68558 obtuses:195 steiners:164
pn:1.67858 obtuses:197 steiners:165
pn:1.67173 obtuses:199 steiners:166
pn:0 obtuses:199 steiners:167
pn:0 obtuses:199 steiners:168
pn:0 obtuses:199 steiners:169
pn:0 obtuses:199 steiners:170
pn:0 obtuses:199 steiners:171
pn:0 obtuses:199 steiners:172
pn:0 obtuses:199 steiners:173
pn:1.73501 obtuses:201 steiners:174
pn:-0.870324 obtuses:200 steiners:175
pn:0 obtuses:200 steiners:176
pn:0 obtuses:200 steiners:177
pn:0 obtuses:200 steiners:178
pn:0 obtuses:200 steiners:179
pn:0 obtuses:200 steiners:180
pn:1.79603 obtuses:202 steiners:181
pn:0 obtuses:202 steiners:182
pn:1.79804 obtuses:204 steiners:183
pn:1.79025 obtuses:206 steiners:184
pn:0 obtuses:206 steiners:185
pn:0 obtuses:206 steiners:186
pn:0.903147 obtuses:207 steiners:187
pn:0 obtuses:207 steiners:188
pn:0 obtuses:207 steiners:189
pn:0 obtuses:207 steiners:190
pn:0 obtuses:207 steiners:191
pn:0 obtuses:207 steiners:192
pn:0 obtuses:207 steiners:193
pn:1.86059 obtuses:209 steiners:194
pn:2.77201 obtuses:212 steiners:195
pn:0 obtuses:212 steiners:196
pn:1.84508 obtuses:214 steiners:197
pn:1.83722 obtuses:216 steiners:198
pn:0 obtuses:216 steiners:199
pn:0 obtuses:216 steiners:200
pn:1.84794 obtuses:218 steiners:201
pn:0 obtuses:218 steiners:202
pn:0 obtuses:218 steiners:203
pn:0 obtuses:218 steiners:204
pn:0 obtuses:218 steiners:205
pn:1.87672 obtuses:220 steiners:206
pn:0 obtuses:220 steiners:207
pn:-0.94533 obtuses:219 steiners:208
pn:0 obtuses:219 steiners:209
pn:1.90455 obtuses:221 steiners:210
pn:0 obtuses:221 steiners:211
pn:0 obtuses:221 steiners:212
pn:1.91442 obtuses:223 steiners:213
pn:0 obtuses:223 steiners:214
pn:0 obtuses:223 steiners:215
pn:0 obtuses:223 steiners:216
pn:-0.973034 obtuses:222 steiners:217
pn:-0.981941 obtuses:221 steiners:218
pn:0 obtuses:221 steiners:219
pn:0 obtuses:221 steiners:220
pn:0 obtuses:221 steiners:221
pn:1.99551 obtuses:223 steiners:222
pn:0.995526 obtuses:224 steiners:223
pn:0 obtuses:224 steiners:224
pn:0 obtuses:224 steiners:225
pn:2.00445 obtuses:226 steiners:226
pn:-1.00443 obtuses:225 steiners:227
pn:0 obtuses:225 steiners:228
pn:0 obtuses:225 steiners:229
pn:-1.02227 obtuses:224 steiners:230
pn:0 obtuses:224 steiners:231
pn:0 obtuses:224 steiners:232
pn:2.06668 obtuses:226 steiners:233
pn:0 obtuses:226 steiners:234
pn:0 obtuses:226 steiners:235
pn:0 obtuses:226 steiners:236
pn:-1.04878 obtuses:225 steiners:237
pn:0 obtuses:225 steiners:238
pn:0 obtuses:225 steiners:239
pn:0 obtuses:225 steiners:240
pn:2.12833 obtuses:227 steiners:241
pn:-1.06623 obtuses:226 steiners:242
pn:0 obtuses:226 steiners:243
pn:0 obtuses:226 steiners:244
pn:0 obtuses:226 steiners:245
pn:0 obtuses:226 steiners:246
pn:-1.09313 obtuses:225 steiners:247
Warning: The Steiner point is too close to an existing point and will not be inserted.
pn:0 obtuses:225 steiners:248
pn:2.19913 obtuses:227 steiners:249
pn:2.18861 obtuses:229 steiners:250
pn:-1.09628 obtuses:228 steiners:251
pn:-1.10549 obtuses:227 steiners:252
pn:0 obtuses:227 steiners:253
pn:0 obtuses:227 steiners:254
pn:0 obtuses:227 steiners:255
pn:0 obtuses:227 steiners:256
pn:2.25001 obtuses:229 steiners:257
pn:-1.12692 obtuses:228 steiners:258
pn:0 obtuses:228 steiners:259
pn:0 obtuses:228 steiners:260
pn:2.27512 obtuses:230 steiners:261
pn:2.26408 obtuses:232 steiners:262
pn:0 obtuses:232 steiners:263
pn:-1.13823 obtuses:231 steiners:264
pn:0 obtuses:231 steiners:265
pn:0 obtuses:231 steiners:266
pn:1.15119 obtuses:232 steiners:267
pn:2.29615 obtuses:234 steiners:268
pn:0 obtuses:234 steiners:269
pn:0 obtuses:234 steiners:270
pn:2.30214 obtuses:236 steiners:271
pn:0 obtuses:236 steiners:272
pn:1.15222 obtuses:237 steiners:273
pn:0 obtuses:237 steiners:274
pn:0 obtuses:237 steiners:275
pn:0 obtuses:237 steiners:276
pn:0 obtuses:237 steiners:277
pn:0 obtuses:237 steiners:278
pn:0 obtuses:237 steiners:279
pn:0 obtuses:237 steiners:280
pn:-1.18605 obtuses:236 steiners:281
pn:0 obtuses:236 steiners:282
pn:2.38398 obtuses:238 steiners:283
Warning: The Steiner point is too close to an existing point and will not be inserted.
pn:0 obtuses:238 steiners:284
pn:2.38076 obtuses:240 steiners:285
pn:0 obtuses:240 steiners:286
pn:1.19127 obtuses:241 steiners:287
pn:2.37604 obtuses:243 steiners:288
pn:0 obtuses:243 steiners:289
pn:0 obtuses:243 steiners:290
pn:0 obtuses:243 steiners:291
pn:0 obtuses:243 steiners:292
pn:0 obtuses:243 steiners:293
pn:1.20534 obtuses:244 steiners:294
pn:-1.20945 obtuses:243 steiners:295
pn:0 obtuses:243 steiners:296
pn:0 obtuses:243 steiners:297
pn:0 obtuses:243 steiners:298
pn:0 obtuses:243 steiners:299
pn:2.45493 obtuses:245 steiners:300
pn:0 obtuses:245 steiners:301
pn:0 obtuses:245 steiners:302
pn:0 obtuses:245 steiners:303
pn:0 obtuses:245 steiners:304
pn:0 obtuses:245 steiners:305
pn:2.48375 obtuses:247 steiners:306
pn:0 obtuses:247 steiners:307
pn:2.47985 obtuses:249 steiners:308
pn:0 obtuses:249 steiners:309
pn:0 obtuses:249 steiners:310
pn:0 obtuses:249 steiners:311
pn:0 obtuses:249 steiners:312
pn:0 obtuses:249 steiners:313
pn:1.25651 obtuses:250 steiners:314
pn:0 obtuses:250 steiners:315
pn:0 obtuses:250 steiners:316
pn:0 obtuses:250 steiners:317
pn:1.26747 obtuses:251 steiners:318
pn:0 obtuses:251 steiners:319
pn:0 obtuses:251 steiners:320
Warning: The Steiner point is too close to an existing point and will not be inserted.
pn:0 obtuses:251 steiners:321
pn:0 obtuses:251 steiners:322
pn:0 obtuses:251 steiners:323
pn:1.28628 obtuses:252 steiners:324
pn:2.56523 obtuses:254 steiners:325
Warning: The Steiner point is too close to an existing point and will not be inserted.
pn:-1.28402 obtuses:253 steiners:326
pn:0 obtuses:253 steiners:327
pn:0 obtuses:253 steiners:328
pn:2.58663 obtuses:255 steiners:329
pn:2.57423 obtuses:257 steiners:330
pn:-1.2885 obtuses:256 steiners:331
pn:0 obtuses:256 steiners:332
pn:-1.30137 obtuses:255 steiners:333
pn:0 obtuses:255 steiners:334
pn:0 obtuses:255 steiners:335
 Μέσος ρυθμός σύγκλισης: 0.371896
Ενέργεια τριγωνοποίσης που δεν συγκλίνει: 2185
Method: Ant Colony: 
	Original CDT had: 76/109 obtuse faces
	We inserted 330 steiner points:
		Middle of largest edge: 7
		Circumcenter: 106
		Projection: 217
		Polygon Cnetroid: 0
Final obtuse faces: 255/758
Τελικές αμβλείες: 255
Τελικές faces: 758
