Input file: .vscode/temp_2_ant.json
Output file: .vscode/output_2_ant.json
ortho_60_5c5796a0
60

POINTS_X
0 ,242782 ,242782 ,839998 ,839998 ,1000000 ,1000000 ,999971 ,999971 ,874332 ,874332 ,810612 ,810612 ,749661 ,749661 ,742663 ,742663 ,684290 ,684290 ,655396 ,655396 ,593539 ,593539 ,613304 ,613304 ,593539 ,593539 ,580701 ,580701 ,285253 ,285253 ,0 ,0 ,807519 ,807519 ,368539 ,368539 ,424598 ,424598 ,486511 ,486511 ,807519 ,807519 ,640628 ,640628 ,484869 ,484869 ,640628 ,640628 ,407157 ,407157 ,356717 ,356717 ,342558 ,342558 ,0 ,0 ,204497 ,204497 ,0 ,
POINTS_Y
0 ,0 ,-635728 ,-635728 ,0 ,0 ,1000000 ,1000000 ,887535 ,887535 ,1195962 ,1195962 ,887535 ,887535 ,1018475 ,1018475 ,1099919 ,1099919 ,1018475 ,1018475 ,887535 ,887535 ,943818 ,943818 ,999775 ,999775 ,1000000 ,1000000 ,837759 ,837759 ,1000000 ,1000000 ,822856 ,822856 ,487423 ,487423 ,272259 ,272259 ,62833 ,62833 ,272259 ,272259 ,249290 ,249290 ,-47267 ,-47267 ,-353142 ,-353142 ,-408952 ,-408952 ,-506509 ,-506509 ,-408952 ,-408952 ,249290 ,249290 ,133391 ,133391 ,102984 ,102984 ,
REGION_BOUND
0 ,1 ,2 ,3 ,4 ,5 ,6 ,7 ,8 ,9 ,10 ,11 ,12 ,13 ,14 ,15 ,16 ,17 ,18 ,19 ,20 ,21 ,22 ,23 ,24 ,25 ,26 ,27 ,28 ,29 ,30 ,31 ,32 ,33 ,34 ,35 ,36 ,37 ,38 ,39 ,40 ,41 ,42 ,43 ,44 ,45 ,46 ,47 ,48 ,49 ,50 ,51 ,52 ,53 ,54 ,55 ,56 ,57 ,58 ,59 ,
NUM CONSTRAINTS
0

ADDITIONAL CONSTRAINTS

METHOD: ant

PARAMETERS:
L: 200, alpha: 3, beta: 0.8, kappa: 8, lambda: 0.5, psi: 3, xi: 1, 
DELAUNAY: true
Δ. Μη κυρτό boundary με ευθύγραμμα τμήματα παράλληλα στους άξονες χωρίςm περιορισμούς.
pn:0 obtuses:54 steiners:3
pn:0 obtuses:54 steiners:4
pn:0 obtuses:54 steiners:5
pn:0 obtuses:54 steiners:6
pn:0 obtuses:54 steiners:7
pn:0 obtuses:54 steiners:8
pn:0 obtuses:54 steiners:9
pn:0 obtuses:54 steiners:10
pn:0 obtuses:54 steiners:11
pn:0 obtuses:54 steiners:12
pn:0 obtuses:54 steiners:13
pn:0 obtuses:54 steiners:14
pn:0 obtuses:54 steiners:15
pn:0 obtuses:54 steiners:16
pn:0 obtuses:54 steiners:17
pn:0 obtuses:54 steiners:18
pn:0 obtuses:54 steiners:19
pn:0 obtuses:54 steiners:20
pn:-0.383113 obtuses:53 steiners:21
pn:0 obtuses:53 steiners:22
pn:0 obtuses:53 steiners:23
pn:0 obtuses:53 steiners:24
pn:0 obtuses:53 steiners:25
pn:0 obtuses:53 steiners:26
pn:0 obtuses:53 steiners:27
pn:0 obtuses:53 steiners:28
pn:0 obtuses:53 steiners:29
pn:0 obtuses:53 steiners:30
pn:0 obtuses:53 steiners:31
pn:0 obtuses:53 steiners:32
pn:0 obtuses:53 steiners:33
pn:0 obtuses:53 steiners:34
pn:0 obtuses:53 steiners:35
pn:0 obtuses:53 steiners:36
pn:0 obtuses:53 steiners:37
pn:0 obtuses:53 steiners:38
pn:0 obtuses:53 steiners:39
pn:0 obtuses:53 steiners:40
pn:0 obtuses:53 steiners:41
pn:0 obtuses:53 steiners:42
pn:0 obtuses:53 steiners:43
pn:0 obtuses:53 steiners:44
pn:0 obtuses:53 steiners:45
pn:0 obtuses:53 steiners:46
pn:0 obtuses:53 steiners:47
pn:0 obtuses:53 steiners:48
pn:0 obtuses:53 steiners:49
pn:0 obtuses:53 steiners:50
pn:0 obtuses:53 steiners:51
pn:0 obtuses:53 steiners:52
pn:0 obtuses:53 steiners:53
pn:-1.01905 obtuses:52 steiners:54
pn:0 obtuses:52 steiners:55
pn:0 obtuses:52 steiners:56
pn:0 obtuses:52 steiners:57
pn:0 obtuses:52 steiners:58
pn:0 obtuses:52 steiners:59
pn:0 obtuses:52 steiners:60
pn:0 obtuses:52 steiners:61
pn:0 obtuses:52 steiners:62
pn:0 obtuses:52 steiners:63
pn:0 obtuses:52 steiners:64
pn:0 obtuses:52 steiners:65
pn:0 obtuses:52 steiners:66
pn:0 obtuses:52 steiners:67
pn:0 obtuses:52 steiners:68
pn:0 obtuses:52 steiners:69
pn:0 obtuses:52 steiners:70
pn:0 obtuses:52 steiners:71
pn:0 obtuses:52 steiners:72
pn:0 obtuses:52 steiners:73
pn:0 obtuses:52 steiners:74
pn:0 obtuses:52 steiners:75
pn:0 obtuses:52 steiners:76
pn:0 obtuses:52 steiners:77
pn:0 obtuses:52 steiners:78
pn:0 obtuses:52 steiners:79
pn:0 obtuses:52 steiners:80
pn:0 obtuses:52 steiners:81
pn:0 obtuses:52 steiners:82
pn:0 obtuses:52 steiners:83
pn:0 obtuses:52 steiners:84
pn:0 obtuses:52 steiners:85
pn:0 obtuses:52 steiners:86
pn:0 obtuses:52 steiners:87
pn:0 obtuses:52 steiners:88
pn:0 obtuses:52 steiners:89
pn:0 obtuses:52 steiners:90
pn:0 obtuses:52 steiners:91
pn:0 obtuses:52 steiners:92
pn:0 obtuses:52 steiners:93
pn:0 obtuses:52 steiners:94
pn:0 obtuses:52 steiners:95
pn:0 obtuses:52 steiners:96
pn:0 obtuses:52 steiners:97
pn:0 obtuses:52 steiners:98
pn:-1.91267 obtuses:51 steiners:99
pn:0 obtuses:51 steiners:100
pn:0 obtuses:51 steiners:101
pn:0 obtuses:51 steiners:102
pn:0 obtuses:51 steiners:103
pn:0 obtuses:51 steiners:104
pn:0 obtuses:51 steiners:105
pn:0 obtuses:51 steiners:106
pn:0 obtuses:51 steiners:107
pn:0 obtuses:51 steiners:108
pn:0 obtuses:51 steiners:109
pn:0 obtuses:51 steiners:110
pn:0 obtuses:51 steiners:111
pn:0 obtuses:51 steiners:112
pn:0 obtuses:51 steiners:113
pn:0 obtuses:51 steiners:114
pn:0 obtuses:51 steiners:115
pn:0 obtuses:51 steiners:116
pn:0 obtuses:51 steiners:117
pn:0 obtuses:51 steiners:118
pn:0 obtuses:51 steiners:119
pn:0 obtuses:51 steiners:120
pn:0 obtuses:51 steiners:121
pn:0 obtuses:51 steiners:122
pn:0 obtuses:51 steiners:123
pn:0 obtuses:51 steiners:124
pn:0 obtuses:51 steiners:125
pn:0 obtuses:51 steiners:126
pn:0 obtuses:51 steiners:127
pn:0 obtuses:51 steiners:128
pn:0 obtuses:51 steiners:129
pn:0 obtuses:51 steiners:130
pn:0 obtuses:51 steiners:131
pn:0 obtuses:51 steiners:132
pn:0 obtuses:51 steiners:133
pn:0 obtuses:51 steiners:134
pn:0 obtuses:51 steiners:135
pn:0 obtuses:51 steiners:136
pn:0 obtuses:51 steiners:137
pn:0 obtuses:51 steiners:138
pn:0 obtuses:51 steiners:139
pn:0 obtuses:51 steiners:140
pn:0 obtuses:51 steiners:141
pn:0 obtuses:51 steiners:142
pn:0 obtuses:51 steiners:143
pn:0 obtuses:51 steiners:144
pn:0 obtuses:51 steiners:145
pn:0 obtuses:51 steiners:146
pn:0 obtuses:51 steiners:147
pn:0 obtuses:51 steiners:148
pn:0 obtuses:51 steiners:149
pn:0 obtuses:51 steiners:150
pn:0 obtuses:51 steiners:151
pn:0 obtuses:51 steiners:152
pn:0 obtuses:51 steiners:153
pn:0 obtuses:51 steiners:154
pn:0 obtuses:51 steiners:155
pn:0 obtuses:51 steiners:156
pn:0 obtuses:51 steiners:157
pn:0 obtuses:51 steiners:158
pn:0 obtuses:51 steiners:159
pn:0 obtuses:51 steiners:160
pn:0 obtuses:51 steiners:161
pn:0 obtuses:51 steiners:162
pn:-3.21792 obtuses:50 steiners:163
pn:0 obtuses:50 steiners:164
pn:0 obtuses:50 steiners:165
pn:0 obtuses:50 steiners:166
pn:0 obtuses:50 steiners:167
pn:0 obtuses:50 steiners:168
pn:0 obtuses:50 steiners:169
pn:0 obtuses:50 steiners:170
pn:0 obtuses:50 steiners:171
pn:0 obtuses:50 steiners:172
pn:0 obtuses:50 steiners:173
pn:0 obtuses:50 steiners:174
pn:0 obtuses:50 steiners:175
pn:0 obtuses:50 steiners:176
pn:0 obtuses:50 steiners:177
pn:0 obtuses:50 steiners:178
pn:0 obtuses:50 steiners:179
pn:0 obtuses:50 steiners:180
pn:0 obtuses:50 steiners:181
pn:0 obtuses:50 steiners:182
pn:0 obtuses:50 steiners:183
pn:0 obtuses:50 steiners:184
pn:0 obtuses:50 steiners:185
pn:0 obtuses:50 steiners:186
pn:0 obtuses:50 steiners:187
pn:0 obtuses:50 steiners:188
pn:0 obtuses:50 steiners:189
pn:0 obtuses:50 steiners:190
pn:0 obtuses:50 steiners:191
pn:0 obtuses:50 steiners:192
pn:0 obtuses:50 steiners:193
pn:0 obtuses:50 steiners:194
pn:0 obtuses:50 steiners:195
pn:0 obtuses:50 steiners:196
pn:0 obtuses:50 steiners:197
pn:0 obtuses:50 steiners:198
pn:0 obtuses:50 steiners:199
Μέσος ρυθμός σύγκλισης: -0.0328279
Method: Ant Colony: 
	Original CDT had: 55/106 obtuse faces
	We inserted 199 steiner points:
		Middle of largest edge: 0
		Circumcenter: 0
		Projection: 199
		Polygon Cnetroid: 0
Final obtuse faces: 50/499
Αρχικές αμβλείες: 55
Τελικές αμβλείες: 50

Αρχικά faces: 106
Τελικές faces: 499

Αρχική ενέργεια: 165
Τελική ενέργεια: 309.2

9.09091% μείωση αμβλείων
