Input file: .vscode/temp_3_ant.json
Output file: .vscode/output_3_ant.json
simple-polygon-exterior-20_40_5faf6985
40

POINTS_X
1 ,0 ,6 ,7 ,1 ,19 ,14 ,17 ,18 ,22 ,26 ,24 ,28 ,26 ,49 ,51 ,63 ,56 ,59 ,53 ,51 ,42 ,31 ,32 ,33 ,37 ,49 ,61 ,51 ,45 ,51 ,53 ,41 ,37 ,31 ,23 ,22 ,9 ,16 ,13 ,
POINTS_Y
27 ,15 ,17 ,11 ,2 ,0 ,15 ,21 ,24 ,24 ,22 ,15 ,9 ,2 ,9 ,2 ,2 ,9 ,20 ,26 ,17 ,10 ,14 ,23 ,28 ,34 ,40 ,52 ,51 ,55 ,57 ,65 ,62 ,46 ,32 ,40 ,49 ,49 ,37 ,31 ,
REGION_BOUND
1 ,4 ,5 ,16 ,27 ,31 ,32 ,37 ,0 ,
NUM CONSTRAINTS
31

ADDITIONAL CONSTRAINTS
[1,2] ,[2,3] ,[3,4] ,[5,6] ,[6,7] ,[7,8] ,[8,9] ,[9,10] ,[10,11] ,[11,12] ,[12,13] ,[13,14] ,[15,16] ,[17,18] ,[18,19] ,[19,20] ,[20,21] ,[21,22] ,[22,23] ,[24,25] ,[25,26] ,[26,27] ,[27,28] ,[28,29] ,[32,33] ,[33,34] ,[34,35] ,[35,36] ,[36,37] ,[38,39] ,[39,0] ,
METHOD: ant

PARAMETERS:
L: 200, alpha: 3, beta: 0.8, kappa: 8, lambda: 0.5, psi: 3, xi: 1, 
DELAUNAY: true
Γ. ΚΥΡΤΟ ΠΕΡΙΒΛΗΜΑ (ΚΛΕΙΣΤΟ)
pn:0 obtuses:32 steiners:3
pn:-0.11036 obtuses:31 steiners:4
pn:-0.146945 obtuses:30 steiners:5
pn:0 obtuses:30 steiners:6
pn:0 obtuses:30 steiners:7
pn:0 obtuses:30 steiners:8
pn:0 obtuses:30 steiners:9
pn:0 obtuses:30 steiners:10
pn:0 obtuses:30 steiners:11
pn:0 obtuses:30 steiners:12
pn:-0.423543 obtuses:29 steiners:13
pn:0 obtuses:29 steiners:14
pn:-0.508622 obtuses:28 steiners:15
pn:0 obtuses:28 steiners:16
pn:0 obtuses:28 steiners:17
pn:-0.636261 obtuses:27 steiners:18
pn:0 obtuses:27 steiners:19
pn:-0.735775 obtuses:26 steiners:20
pn:0 obtuses:26 steiners:21
pn:0 obtuses:26 steiners:22
pn:0 obtuses:26 steiners:23
pn:0 obtuses:26 steiners:24
pn:0 obtuses:26 steiners:25
pn:0 obtuses:26 steiners:26
pn:0 obtuses:26 steiners:27
pn:0 obtuses:26 steiners:28
pn:-1.11768 obtuses:25 steiners:29
pn:0 obtuses:25 steiners:30
pn:0 obtuses:25 steiners:31
pn:0 obtuses:25 steiners:32
pn:0 obtuses:25 steiners:33
pn:0 obtuses:25 steiners:34
pn:0 obtuses:25 steiners:35
pn:0 obtuses:25 steiners:36
pn:0 obtuses:25 steiners:37
pn:0 obtuses:25 steiners:38
pn:0 obtuses:25 steiners:39
pn:0 obtuses:25 steiners:40
pn:-1.65321 obtuses:24 steiners:41
pn:0 obtuses:24 steiners:42
pn:-1.8087 obtuses:23 steiners:43
pn:0 obtuses:23 steiners:44
pn:0 obtuses:23 steiners:45
pn:0 obtuses:23 steiners:46
pn:-2.06693 obtuses:22 steiners:47
pn:0 obtuses:22 steiners:48
pn:0 obtuses:22 steiners:49
pn:0 obtuses:22 steiners:50
pn:0 obtuses:22 steiners:51
pn:0 obtuses:22 steiners:52
pn:0 obtuses:22 steiners:53
pn:0 obtuses:22 steiners:54
pn:0 obtuses:22 steiners:55
pn:0 obtuses:22 steiners:56
pn:0 obtuses:22 steiners:57
pn:-2.67483 obtuses:21 steiners:58
pn:0 obtuses:21 steiners:59
pn:0 obtuses:21 steiners:60
pn:0 obtuses:21 steiners:61
pn:-3.00053 obtuses:20 steiners:62
pn:0 obtuses:20 steiners:63
pn:0 obtuses:20 steiners:64
pn:0 obtuses:20 steiners:65
pn:0 obtuses:20 steiners:66
pn:0 obtuses:20 steiners:67
pn:0 obtuses:20 steiners:68
pn:0 obtuses:20 steiners:69
pn:0 obtuses:20 steiners:70
pn:0 obtuses:20 steiners:71
pn:0 obtuses:20 steiners:72
pn:0 obtuses:20 steiners:73
pn:0 obtuses:20 steiners:74
pn:-3.82129 obtuses:19 steiners:75
pn:0 obtuses:19 steiners:76
pn:0 obtuses:19 steiners:77
pn:0 obtuses:19 steiners:78
pn:0 obtuses:19 steiners:79
pn:0 obtuses:19 steiners:80
pn:0 obtuses:19 steiners:81
pn:0 obtuses:19 steiners:82
pn:0 obtuses:19 steiners:83
pn:-4.51456 obtuses:18 steiners:84
pn:0 obtuses:18 steiners:85
pn:0 obtuses:18 steiners:86
pn:0 obtuses:18 steiners:87
pn:0 obtuses:18 steiners:88
pn:0 obtuses:18 steiners:89
pn:0 obtuses:18 steiners:90
pn:0 obtuses:18 steiners:91
pn:0 obtuses:18 steiners:92
pn:0 obtuses:18 steiners:93
pn:-5.34426 obtuses:17 steiners:94
pn:0 obtuses:17 steiners:95
pn:0 obtuses:17 steiners:96
pn:0 obtuses:17 steiners:97
pn:0 obtuses:17 steiners:98
pn:0 obtuses:17 steiners:99
pn:0 obtuses:17 steiners:100
pn:0 obtuses:17 steiners:101
pn:0 obtuses:17 steiners:102
pn:0 obtuses:17 steiners:103
pn:0 obtuses:17 steiners:104
pn:0 obtuses:17 steiners:105
pn:0 obtuses:17 steiners:106
pn:0 obtuses:17 steiners:107
pn:0 obtuses:17 steiners:108
pn:0 obtuses:17 steiners:109
pn:0 obtuses:17 steiners:110
pn:0 obtuses:17 steiners:111
pn:0 obtuses:17 steiners:112
pn:0 obtuses:17 steiners:113
pn:0 obtuses:17 steiners:114
pn:0 obtuses:17 steiners:115
pn:0 obtuses:17 steiners:116
pn:0 obtuses:17 steiners:117
pn:0 obtuses:17 steiners:118
pn:0 obtuses:17 steiners:119
pn:-7.2446 obtuses:16 steiners:120
pn:0 obtuses:16 steiners:121
pn:0 obtuses:16 steiners:122
pn:-7.90592 obtuses:15 steiners:123
pn:0 obtuses:15 steiners:124
pn:0 obtuses:15 steiners:125
pn:0 obtuses:15 steiners:126
pn:0 obtuses:15 steiners:127
pn:-8.79655 obtuses:14 steiners:128
pn:0 obtuses:14 steiners:129
pn:-9.59693 obtuses:13 steiners:130
pn:0 obtuses:13 steiners:131
pn:0 obtuses:13 steiners:132
pn:0 obtuses:13 steiners:133
pn:-10.6857 obtuses:12 steiners:134
pn:0 obtuses:12 steiners:135
pn:0 obtuses:12 steiners:136
pn:0 obtuses:12 steiners:137
pn:0 obtuses:12 steiners:138
pn:0 obtuses:12 steiners:139
pn:0 obtuses:12 steiners:140
pn:0 obtuses:12 steiners:141
pn:0 obtuses:12 steiners:142
pn:0 obtuses:12 steiners:143
pn:0 obtuses:12 steiners:144
pn:0 obtuses:12 steiners:145
pn:0 obtuses:12 steiners:146
pn:0 obtuses:12 steiners:147
pn:0 obtuses:12 steiners:148
pn:0 obtuses:12 steiners:149
pn:0 obtuses:12 steiners:150
pn:0 obtuses:12 steiners:151
pn:0 obtuses:12 steiners:152
pn:0 obtuses:12 steiners:153
pn:0 obtuses:12 steiners:154
pn:0 obtuses:12 steiners:155
pn:0 obtuses:12 steiners:156
pn:0 obtuses:12 steiners:157
pn:0 obtuses:12 steiners:158
pn:0 obtuses:12 steiners:159
pn:0 obtuses:12 steiners:160
pn:0 obtuses:12 steiners:161
pn:0 obtuses:12 steiners:162
pn:0 obtuses:12 steiners:163
pn:0 obtuses:12 steiners:164
pn:0 obtuses:12 steiners:165
pn:0 obtuses:12 steiners:166
pn:0 obtuses:12 steiners:167
pn:0 obtuses:12 steiners:168
pn:0 obtuses:12 steiners:169
pn:0 obtuses:12 steiners:170
pn:0 obtuses:12 steiners:171
pn:0 obtuses:12 steiners:172
pn:0 obtuses:12 steiners:173
pn:0 obtuses:12 steiners:174
pn:0 obtuses:12 steiners:175
pn:0 obtuses:12 steiners:176
pn:0 obtuses:12 steiners:177
pn:0 obtuses:12 steiners:178
pn:0 obtuses:12 steiners:179
pn:0 obtuses:12 steiners:180
pn:0 obtuses:12 steiners:181
pn:0 obtuses:12 steiners:182
pn:0 obtuses:12 steiners:183
pn:0 obtuses:12 steiners:184
pn:0 obtuses:12 steiners:185
pn:0 obtuses:12 steiners:186
pn:0 obtuses:12 steiners:187
pn:0 obtuses:12 steiners:188
pn:0 obtuses:12 steiners:189
pn:0 obtuses:12 steiners:190
pn:-16.5756 obtuses:11 steiners:191
pn:0 obtuses:11 steiners:192
pn:0 obtuses:11 steiners:193
pn:0 obtuses:11 steiners:194
pn:0 obtuses:11 steiners:195
pn:0 obtuses:11 steiners:196
pn:0 obtuses:11 steiners:197
pn:-18.8237 obtuses:10 steiners:198
pn:0 obtuses:10 steiners:199
Μέσος ρυθμός σύγκλισης: -0.543681
Method: Ant Colony: 
	Original CDT had: 34/69 obtuse faces
	We inserted 199 steiner points:
		Middle of largest edge: 0
		Circumcenter: 0
		Projection: 199
		Polygon Cnetroid: 0
Final obtuse faces: 10/447
Αρχικές αμβλείες: 34
Τελικές αμβλείες: 10

Αρχικά faces: 69
Τελικές faces: 447

Αρχική ενέργεια: 102
Τελική ενέργεια: 189.2

70.5882% μείωση αμβλείων
