Input file: .vscode/temp_3_ant.json
Output file: .vscode/output_3_ant.json
simple-polygon_60_0347cd75
60

POINTS_X
2578 ,2271 ,1641 ,1343 ,1228 ,1215 ,910 ,909 ,686 ,179 ,24 ,166 ,444 ,592 ,359 ,215 ,104 ,34 ,0 ,223 ,21 ,10 ,438 ,786 ,815 ,820 ,1012 ,1267 ,1410 ,1760 ,1849 ,2030 ,2569 ,2342 ,2480 ,2972 ,2971 ,3080 ,3397 ,3621 ,3230 ,3278 ,3856 ,3627 ,3685 ,3616 ,3710 ,3931 ,3480 ,3491 ,3354 ,3365 ,3155 ,2914 ,2567 ,2463 ,2283 ,2213 ,2159 ,2414 ,
POINTS_Y
1824 ,1804 ,1550 ,1520 ,1939 ,1940 ,1760 ,1694 ,1806 ,1804 ,1951 ,1536 ,1664 ,1378 ,1042 ,1112 ,856 ,851 ,668 ,578 ,456 ,0 ,328 ,266 ,623 ,614 ,422 ,519 ,128 ,84 ,191 ,411 ,296 ,634 ,652 ,786 ,208 ,167 ,137 ,37 ,372 ,485 ,592 ,1012 ,1076 ,1168 ,1182 ,1552 ,1879 ,1665 ,1640 ,1492 ,1058 ,1453 ,1280 ,1177 ,1121 ,1368 ,1613 ,1532 ,
REGION_BOUND
0 ,1 ,2 ,3 ,4 ,5 ,6 ,7 ,8 ,9 ,10 ,11 ,12 ,13 ,14 ,15 ,16 ,17 ,18 ,19 ,20 ,21 ,22 ,23 ,24 ,25 ,26 ,27 ,28 ,29 ,30 ,31 ,32 ,33 ,34 ,35 ,36 ,37 ,38 ,39 ,40 ,41 ,42 ,43 ,44 ,45 ,46 ,47 ,48 ,49 ,50 ,51 ,52 ,53 ,54 ,55 ,56 ,57 ,58 ,59 ,
NUM CONSTRAINTS
0

ADDITIONAL CONSTRAINTS

METHOD: ant

PARAMETERS:
L: 200, alpha: 3, beta: 0.8, kappa: 8, lambda: 0.5, psi: 3, xi: 1, 
DELAUNAY: true
Ε. Μη κυρτό boundary, ακανόνιστο, που δεν εντάσσεται στις κατηγορίες Α-Δ. 
pn:0 obtuses:71 steiners:3
pn:0 obtuses:71 steiners:4
pn:0 obtuses:71 steiners:5
pn:0 obtuses:71 steiners:6
pn:0 obtuses:71 steiners:7
pn:0 obtuses:71 steiners:8
pn:0 obtuses:71 steiners:9
pn:0 obtuses:71 steiners:10
pn:0 obtuses:71 steiners:11
pn:0 obtuses:71 steiners:12
pn:0 obtuses:71 steiners:13
pn:0 obtuses:71 steiners:14
pn:-0.205596 obtuses:70 steiners:15
pn:-0.222948 obtuses:69 steiners:16
pn:-0.240806 obtuses:68 steiners:17
pn:0 obtuses:68 steiners:18
pn:0 obtuses:68 steiners:19
pn:0 obtuses:68 steiners:20
pn:0 obtuses:68 steiners:21
pn:-0.318467 obtuses:67 steiners:22
pn:0 obtuses:67 steiners:23
pn:0 obtuses:67 steiners:24
pn:0 obtuses:67 steiners:25
pn:-0.383417 obtuses:66 steiners:26
pn:0 obtuses:66 steiners:27
pn:0 obtuses:66 steiners:28
pn:0 obtuses:66 steiners:29
pn:0 obtuses:66 steiners:30
pn:0 obtuses:66 steiners:31
pn:0 obtuses:66 steiners:32
pn:0 obtuses:66 steiners:33
pn:0 obtuses:66 steiners:34
pn:0 obtuses:66 steiners:35
pn:-0.541959 obtuses:65 steiners:36
pn:0 obtuses:65 steiners:37
pn:0 obtuses:65 steiners:38
pn:0 obtuses:65 steiners:39
pn:0 obtuses:65 steiners:40
pn:0 obtuses:65 steiners:41
pn:0 obtuses:65 steiners:42
pn:0 obtuses:65 steiners:43
pn:0 obtuses:65 steiners:44
pn:-0.689907 obtuses:64 steiners:45
pn:0 obtuses:64 steiners:46
pn:0 obtuses:64 steiners:47
pn:0 obtuses:64 steiners:48
pn:-0.763768 obtuses:63 steiners:49
pn:0 obtuses:63 steiners:50
pn:0 obtuses:63 steiners:51
pn:0 obtuses:63 steiners:52
pn:-0.839993 obtuses:62 steiners:53
pn:0 obtuses:62 steiners:54
pn:0 obtuses:62 steiners:55
pn:0 obtuses:62 steiners:56
pn:0 obtuses:62 steiners:57
pn:0 obtuses:62 steiners:58
pn:0 obtuses:62 steiners:59
pn:0 obtuses:62 steiners:60
pn:0 obtuses:62 steiners:61
pn:0 obtuses:62 steiners:62
pn:0 obtuses:62 steiners:63
pn:0 obtuses:62 steiners:64
pn:0 obtuses:62 steiners:65
pn:0 obtuses:62 steiners:66
pn:0 obtuses:62 steiners:67
pn:0 obtuses:62 steiners:68
pn:0 obtuses:62 steiners:69
pn:0 obtuses:62 steiners:70
pn:0 obtuses:62 steiners:71
pn:0 obtuses:62 steiners:72
pn:0 obtuses:62 steiners:73
pn:0 obtuses:62 steiners:74
pn:0 obtuses:62 steiners:75
pn:0 obtuses:62 steiners:76
pn:0 obtuses:62 steiners:77
pn:0 obtuses:62 steiners:78
pn:0 obtuses:62 steiners:79
pn:0 obtuses:62 steiners:80
pn:0 obtuses:62 steiners:81
pn:0 obtuses:62 steiners:82
pn:0 obtuses:62 steiners:83
pn:0 obtuses:62 steiners:84
pn:0 obtuses:62 steiners:85
pn:0 obtuses:62 steiners:86
pn:0 obtuses:62 steiners:87
pn:0 obtuses:62 steiners:88
pn:0 obtuses:62 steiners:89
pn:0 obtuses:62 steiners:90
pn:0 obtuses:62 steiners:91
pn:0 obtuses:62 steiners:92
pn:0 obtuses:62 steiners:93
pn:0 obtuses:62 steiners:94
pn:0 obtuses:62 steiners:95
pn:0 obtuses:62 steiners:96
pn:0 obtuses:62 steiners:97
pn:0 obtuses:62 steiners:98
pn:0 obtuses:62 steiners:99
pn:0 obtuses:62 steiners:100
pn:0 obtuses:62 steiners:101
pn:0 obtuses:62 steiners:102
pn:0 obtuses:62 steiners:103
pn:0 obtuses:62 steiners:104
pn:0 obtuses:62 steiners:105
pn:0 obtuses:62 steiners:106
pn:0 obtuses:62 steiners:107
pn:-1.74799 obtuses:61 steiners:108
pn:0 obtuses:61 steiners:109
pn:-1.80995 obtuses:60 steiners:110
pn:0 obtuses:60 steiners:111
pn:0 obtuses:60 steiners:112
pn:0 obtuses:60 steiners:113
pn:0 obtuses:60 steiners:114
pn:0 obtuses:60 steiners:115
pn:0 obtuses:60 steiners:116
pn:0 obtuses:60 steiners:117
pn:0 obtuses:60 steiners:118
pn:0 obtuses:60 steiners:119
pn:0 obtuses:60 steiners:120
pn:0 obtuses:60 steiners:121
pn:0 obtuses:60 steiners:122
pn:0 obtuses:60 steiners:123
pn:0 obtuses:60 steiners:124
pn:0 obtuses:60 steiners:125
pn:0 obtuses:60 steiners:126
pn:-2.12609 obtuses:59 steiners:127
pn:0 obtuses:59 steiners:128
pn:0 obtuses:59 steiners:129
pn:0 obtuses:59 steiners:130
pn:0 obtuses:59 steiners:131
pn:-2.24791 obtuses:58 steiners:132
pn:0 obtuses:58 steiners:133
pn:0 obtuses:58 steiners:134
pn:0 obtuses:58 steiners:135
pn:-2.35657 obtuses:57 steiners:136
pn:0 obtuses:57 steiners:137
pn:0 obtuses:57 steiners:138
pn:0 obtuses:57 steiners:139
pn:-2.46908 obtuses:56 steiners:140
pn:0 obtuses:56 steiners:141
pn:0 obtuses:56 steiners:142
pn:0 obtuses:56 steiners:143
pn:0 obtuses:56 steiners:144
pn:0 obtuses:56 steiners:145
pn:-2.62168 obtuses:55 steiners:146
pn:0 obtuses:55 steiners:147
pn:0 obtuses:55 steiners:148
pn:0 obtuses:55 steiners:149
pn:0 obtuses:55 steiners:150
pn:0 obtuses:55 steiners:151
pn:0 obtuses:55 steiners:152
pn:0 obtuses:55 steiners:153
pn:0 obtuses:55 steiners:154
pn:0 obtuses:55 steiners:155
pn:-2.85328 obtuses:54 steiners:156
pn:0 obtuses:54 steiners:157
pn:0 obtuses:54 steiners:158
pn:0 obtuses:54 steiners:159
pn:0 obtuses:54 steiners:160
pn:0 obtuses:54 steiners:161
pn:0 obtuses:54 steiners:162
pn:0 obtuses:54 steiners:163
pn:0 obtuses:54 steiners:164
pn:0 obtuses:54 steiners:165
pn:0 obtuses:54 steiners:166
pn:0 obtuses:54 steiners:167
pn:0 obtuses:54 steiners:168
pn:0 obtuses:54 steiners:169
pn:0 obtuses:54 steiners:170
pn:0 obtuses:54 steiners:171
pn:-3.20569 obtuses:53 steiners:172
pn:0 obtuses:53 steiners:173
pn:0 obtuses:53 steiners:174
pn:0 obtuses:53 steiners:175
pn:0 obtuses:53 steiners:176
pn:0 obtuses:53 steiners:177
pn:0 obtuses:53 steiners:178
pn:0 obtuses:53 steiners:179
pn:0 obtuses:53 steiners:180
pn:0 obtuses:53 steiners:181
pn:0 obtuses:53 steiners:182
pn:0 obtuses:53 steiners:183
pn:0 obtuses:53 steiners:184
pn:0 obtuses:53 steiners:185
pn:0 obtuses:53 steiners:186
pn:0 obtuses:53 steiners:187
pn:0 obtuses:53 steiners:188
pn:0 obtuses:53 steiners:189
pn:-3.60962 obtuses:52 steiners:190
pn:0 obtuses:52 steiners:191
pn:0 obtuses:52 steiners:192
pn:-3.73797 obtuses:51 steiners:193
pn:0 obtuses:51 steiners:194
pn:0 obtuses:51 steiners:195
pn:0 obtuses:51 steiners:196
pn:0 obtuses:51 steiners:197
pn:0 obtuses:51 steiners:198
pn:0 obtuses:51 steiners:199
Μέσος ρυθμός σύγκλισης: -0.165792
Method: Ant Colony: 
	Original CDT had: 73/110 obtuse faces
	We inserted 199 steiner points:
		Middle of largest edge: 0
		Circumcenter: 0
		Projection: 199
		Polygon Cnetroid: 0
Final obtuse faces: 51/489
Αρχικές αμβλείες: 73
Τελικές αμβλείες: 51

Αρχικά faces: 110
Τελικές faces: 489

Αρχική ενέργεια: 219
Τελική ενέργεια: 312.2

30.137% μείωση αμβλείων
