Input file: .vscode/temp_5_ant.json
Output file: .vscode/output_5_ant.json
ortho_150_53eb4022
150

POINTS_X
0 ,65096 ,65096 ,402553 ,402553 ,424168 ,424168 ,573710 ,573710 ,528074 ,528074 ,573710 ,573710 ,569404 ,342089 ,342089 ,573710 ,573710 ,501167 ,501167 ,463556 ,463556 ,424168 ,424168 ,800686 ,800686 ,609127 ,609127 ,619374 ,619374 ,683802 ,683802 ,710594 ,710594 ,768341 ,768341 ,800686 ,800686 ,998251 ,998251 ,1138947 ,1138947 ,1235205 ,1235205 ,1138947 ,1138947 ,1235293 ,1235293 ,1256733 ,1256733 ,1384556 ,1384556 ,1266884 ,1266884 ,1120646 ,1120646 ,1051750 ,1051750 ,1031403 ,1031403 ,800686 ,800686 ,847132 ,847132 ,928372 ,928372 ,1000000 ,1000000 ,993050 ,993050 ,964609 ,964609 ,953846 ,953846 ,900166 ,900166 ,835023 ,835023 ,1000000 ,1000000 ,1040030 ,1040030 ,1057145 ,1115712 ,1115712 ,1152506 ,1152506 ,775564 ,775564 ,848379 ,848379 ,950540 ,950540 ,1152506 ,1152506 ,1296978 ,1296978 ,1152506 ,1152506 ,1000000 ,1000000 ,781956 ,781956 ,729534 ,729534 ,585180 ,585180 ,492994 ,492994 ,0 ,0 ,-250968 ,-250968 ,-294671 ,-294671 ,-434566 ,-434566 ,-479882 ,-479882 ,-250968 ,-250968 ,-153420 ,-153420 ,-24269 ,-24269 ,0 ,0 ,359292 ,359292 ,218100 ,218100 ,41319 ,41319 ,218100 ,218100 ,359292 ,359292 ,270394 ,270394 ,218555 ,218555 ,198535 ,198535 ,158822 ,158822 ,99317 ,99317 ,78645 ,78645 ,0 ,
POINTS_Y
0 ,0 ,-300534 ,-300534 ,0 ,0 ,-385956 ,-385956 ,-391664 ,-391664 ,-443133 ,-443133 ,-460209 ,-460209 ,-460209 ,-509840 ,-509840 ,-643336 ,-643336 ,-758392 ,-758392 ,-643336 ,-643336 ,-847097 ,-847097 ,-755596 ,-755596 ,-660017 ,-660017 ,-738419 ,-738419 ,-660017 ,-660017 ,-562501 ,-562501 ,-660017 ,-660017 ,-317351 ,-317351 ,-556701 ,-556701 ,-538548 ,-538548 ,-420606 ,-420606 ,-402226 ,-402226 ,-556701 ,-556701 ,-317351 ,-317351 ,-214950 ,-214950 ,-58561 ,-58561 ,-231430 ,-231430 ,-58561 ,-58561 ,-214950 ,-214950 ,0 ,0 ,-154472 ,-154472 ,0 ,0 ,36287 ,36287 ,97090 ,97090 ,36287 ,36287 ,87063 ,87063 ,36287 ,36287 ,177744 ,177744 ,266284 ,266284 ,227723 ,227723 ,227723 ,266284 ,266284 ,549809 ,549809 ,660735 ,660735 ,894384 ,894384 ,660735 ,660735 ,693118 ,693118 ,848231 ,848231 ,952489 ,952489 ,1000000 ,1000000 ,1685236 ,1685236 ,1728360 ,1728360 ,1685236 ,1685236 ,1000000 ,1000000 ,883594 ,883594 ,880261 ,880261 ,819848 ,819848 ,880261 ,880261 ,665320 ,665320 ,518745 ,518745 ,581277 ,581277 ,518745 ,518745 ,470547 ,470547 ,430877 ,430877 ,286862 ,286862 ,174824 ,174824 ,154190 ,154190 ,46589 ,46589 ,2893 ,2893 ,67772 ,67772 ,2893 ,2893 ,74603 ,74603 ,2893 ,2893 ,46589 ,46589 ,
REGION_BOUND
0 ,1 ,2 ,3 ,4 ,5 ,6 ,7 ,8 ,9 ,10 ,11 ,12 ,13 ,14 ,15 ,16 ,17 ,18 ,19 ,20 ,21 ,22 ,23 ,24 ,25 ,26 ,27 ,28 ,29 ,30 ,31 ,32 ,33 ,34 ,35 ,36 ,37 ,38 ,39 ,40 ,41 ,42 ,43 ,44 ,45 ,46 ,47 ,48 ,49 ,50 ,51 ,52 ,53 ,54 ,55 ,56 ,57 ,58 ,59 ,60 ,61 ,62 ,63 ,64 ,65 ,66 ,67 ,68 ,69 ,70 ,71 ,72 ,73 ,74 ,75 ,76 ,77 ,78 ,79 ,80 ,81 ,82 ,83 ,84 ,85 ,86 ,87 ,88 ,89 ,90 ,91 ,92 ,93 ,94 ,95 ,96 ,97 ,98 ,99 ,100 ,101 ,102 ,103 ,104 ,105 ,106 ,107 ,108 ,109 ,110 ,111 ,112 ,113 ,114 ,115 ,116 ,117 ,118 ,119 ,120 ,121 ,122 ,123 ,124 ,125 ,126 ,127 ,128 ,129 ,130 ,131 ,132 ,133 ,134 ,135 ,136 ,137 ,138 ,139 ,140 ,141 ,142 ,143 ,144 ,145 ,146 ,147 ,148 ,149 ,
NUM CONSTRAINTS
0

ADDITIONAL CONSTRAINTS

METHOD: ant

PARAMETERS:
L: 200, alpha: 3, beta: 0.8, kappa: 8, lambda: 0.5, psi: 3, xi: 1, 
DELAUNAY: true
Δ. Μη κυρτό boundary με ευθύγραμμα τμήματα παράλληλα στους άξονες χωρίςm περιορισμούς.
pn:0 obtuses:124 steiners:3
pn:0 obtuses:124 steiners:4
pn:0 obtuses:124 steiners:5
pn:0 obtuses:124 steiners:6
pn:-0.0525279 obtuses:123 steiners:7
pn:0 obtuses:123 steiners:8
pn:0 obtuses:123 steiners:9
pn:0 obtuses:123 steiners:10
pn:0 obtuses:123 steiners:11
pn:0 obtuses:123 steiners:12
pn:-0.101987 obtuses:122 steiners:13
pn:0 obtuses:122 steiners:14
pn:0 obtuses:122 steiners:15
pn:-0.127528 obtuses:121 steiners:16
pn:0 obtuses:121 steiners:17
pn:0 obtuses:121 steiners:18
pn:-0.15349 obtuses:120 steiners:19
pn:0 obtuses:120 steiners:20
pn:0 obtuses:120 steiners:21
pn:-0.179885 obtuses:119 steiners:22
pn:0 obtuses:119 steiners:23
pn:0 obtuses:119 steiners:24
pn:0 obtuses:119 steiners:25
pn:0 obtuses:119 steiners:26
pn:0 obtuses:119 steiners:27
pn:0 obtuses:119 steiners:28
pn:0 obtuses:119 steiners:29
pn:0 obtuses:119 steiners:30
pn:0 obtuses:119 steiners:31
pn:0 obtuses:119 steiners:32
pn:0 obtuses:119 steiners:33
pn:0 obtuses:119 steiners:34
pn:0 obtuses:119 steiners:35
pn:0 obtuses:119 steiners:36
pn:0 obtuses:119 steiners:37
pn:0 obtuses:119 steiners:38
pn:0 obtuses:119 steiners:39
pn:0 obtuses:119 steiners:40
pn:0 obtuses:119 steiners:41
pn:0 obtuses:119 steiners:42
pn:0 obtuses:119 steiners:43
pn:0 obtuses:119 steiners:44
pn:0 obtuses:119 steiners:45
pn:0 obtuses:119 steiners:46
pn:0 obtuses:119 steiners:47
pn:0 obtuses:119 steiners:48
pn:0 obtuses:119 steiners:49
pn:0 obtuses:119 steiners:50
pn:0 obtuses:119 steiners:51
pn:0 obtuses:119 steiners:52
pn:0 obtuses:119 steiners:53
pn:0 obtuses:119 steiners:54
pn:0 obtuses:119 steiners:55
pn:-0.468345 obtuses:118 steiners:56
pn:0 obtuses:118 steiners:57
pn:0 obtuses:118 steiners:58
pn:0 obtuses:118 steiners:59
pn:0 obtuses:118 steiners:60
pn:0 obtuses:118 steiners:61
pn:0 obtuses:118 steiners:62
pn:0 obtuses:118 steiners:63
pn:0 obtuses:118 steiners:64
pn:0 obtuses:118 steiners:65
pn:-0.557439 obtuses:117 steiners:66
pn:0 obtuses:117 steiners:67
pn:0 obtuses:117 steiners:68
pn:0 obtuses:117 steiners:69
pn:0 obtuses:117 steiners:70
pn:0 obtuses:117 steiners:71
pn:0 obtuses:117 steiners:72
pn:-0.622312 obtuses:116 steiners:73
pn:0 obtuses:116 steiners:74
pn:0 obtuses:116 steiners:75
pn:0 obtuses:116 steiners:76
pn:0 obtuses:116 steiners:77
pn:0 obtuses:116 steiners:78
pn:0 obtuses:116 steiners:79
pn:0 obtuses:116 steiners:80
pn:0 obtuses:116 steiners:81
pn:-0.705623 obtuses:115 steiners:82
pn:0 obtuses:115 steiners:83
pn:0 obtuses:115 steiners:84
pn:0 obtuses:115 steiners:85
pn:0 obtuses:115 steiners:86
pn:0 obtuses:115 steiners:87
pn:0 obtuses:115 steiners:88
pn:0 obtuses:115 steiners:89
pn:0 obtuses:115 steiners:90
pn:0 obtuses:115 steiners:91
pn:0 obtuses:115 steiners:92
pn:0 obtuses:115 steiners:93
pn:0 obtuses:115 steiners:94
pn:0 obtuses:115 steiners:95
pn:0 obtuses:115 steiners:96
pn:0 obtuses:115 steiners:97
pn:0 obtuses:115 steiners:98
pn:-0.86026 obtuses:114 steiners:99
pn:0 obtuses:114 steiners:100
pn:0 obtuses:114 steiners:101
pn:0 obtuses:114 steiners:102
pn:0 obtuses:114 steiners:103
pn:0 obtuses:114 steiners:104
pn:0 obtuses:114 steiners:105
pn:0 obtuses:114 steiners:106
pn:0 obtuses:114 steiners:107
pn:0 obtuses:114 steiners:108
pn:0 obtuses:114 steiners:109
pn:0 obtuses:114 steiners:110
pn:0 obtuses:114 steiners:111
pn:0 obtuses:114 steiners:112
pn:0 obtuses:114 steiners:113
pn:0 obtuses:114 steiners:114
pn:0 obtuses:114 steiners:115
pn:0 obtuses:114 steiners:116
pn:0 obtuses:114 steiners:117
pn:0 obtuses:114 steiners:118
pn:0 obtuses:114 steiners:119
pn:0 obtuses:114 steiners:120
pn:0 obtuses:114 steiners:121
pn:0 obtuses:114 steiners:122
pn:0 obtuses:114 steiners:123
pn:0 obtuses:114 steiners:124
pn:0 obtuses:114 steiners:125
pn:0 obtuses:114 steiners:126
pn:0 obtuses:114 steiners:127
pn:0 obtuses:114 steiners:128
pn:0 obtuses:114 steiners:129
pn:-1.14097 obtuses:113 steiners:130
pn:0 obtuses:113 steiners:131
pn:0 obtuses:113 steiners:132
pn:0 obtuses:113 steiners:133
pn:0 obtuses:113 steiners:134
pn:0 obtuses:113 steiners:135
pn:0 obtuses:113 steiners:136
pn:0 obtuses:113 steiners:137
pn:0 obtuses:113 steiners:138
pn:0 obtuses:113 steiners:139
pn:0 obtuses:113 steiners:140
pn:0 obtuses:113 steiners:141
pn:0 obtuses:113 steiners:142
pn:0 obtuses:113 steiners:143
pn:0 obtuses:113 steiners:144
pn:0 obtuses:113 steiners:145
pn:0 obtuses:113 steiners:146
pn:0 obtuses:113 steiners:147
pn:0 obtuses:113 steiners:148
pn:0 obtuses:113 steiners:149
pn:0 obtuses:113 steiners:150
pn:0 obtuses:113 steiners:151
pn:0 obtuses:113 steiners:152
pn:-1.35556 obtuses:112 steiners:153
pn:0 obtuses:112 steiners:154
pn:0 obtuses:112 steiners:155
pn:0 obtuses:112 steiners:156
pn:0 obtuses:112 steiners:157
pn:0 obtuses:112 steiners:158
pn:0 obtuses:112 steiners:159
pn:0 obtuses:112 steiners:160
pn:0 obtuses:112 steiners:161
pn:0 obtuses:112 steiners:162
pn:0 obtuses:112 steiners:163
pn:0 obtuses:112 steiners:164
pn:0 obtuses:112 steiners:165
pn:0 obtuses:112 steiners:166
pn:-1.49328 obtuses:111 steiners:167
pn:0 obtuses:111 steiners:168
pn:0 obtuses:111 steiners:169
pn:0 obtuses:111 steiners:170
pn:0 obtuses:111 steiners:171
pn:0 obtuses:111 steiners:172
pn:0 obtuses:111 steiners:173
pn:0 obtuses:111 steiners:174
pn:-1.57919 obtuses:110 steiners:175
pn:0 obtuses:110 steiners:176
pn:0 obtuses:110 steiners:177
pn:0 obtuses:110 steiners:178
pn:0 obtuses:110 steiners:179
pn:0 obtuses:110 steiners:180
pn:0 obtuses:110 steiners:181
pn:0 obtuses:110 steiners:182
pn:0 obtuses:110 steiners:183
pn:0 obtuses:110 steiners:184
pn:0 obtuses:110 steiners:185
pn:-1.69407 obtuses:109 steiners:186
pn:-1.7189 obtuses:108 steiners:187
pn:0 obtuses:108 steiners:188
pn:0 obtuses:108 steiners:189
pn:0 obtuses:108 steiners:190
pn:0 obtuses:108 steiners:191
pn:0 obtuses:108 steiners:192
pn:0 obtuses:108 steiners:193
pn:0 obtuses:108 steiners:194
pn:0 obtuses:108 steiners:195
pn:0 obtuses:108 steiners:196
pn:0 obtuses:108 steiners:197
pn:0 obtuses:108 steiners:198
pn:0 obtuses:108 steiners:199
Μέσος ρυθμός σύγκλισης: -0.0643788
Method: Ant Colony: 
	Original CDT had: 125/285 obtuse faces
	We inserted 199 steiner points:
		Middle of largest edge: 0
		Circumcenter: 0
		Projection: 199
		Polygon Cnetroid: 0
Final obtuse faces: 108/671
Αρχικές αμβλείες: 125
Τελικές αμβλείες: 108

Αρχικά faces: 285
Τελικές faces: 671

Αρχική ενέργεια: 375
Τελική ενέργεια: 483.2

13.6% μείωση αμβλείων
