Input file: .vscode/temp_6_ant.json
Output file: .vscode/output_6_ant.json
ortho_250_3b977f7e
250

POINTS_X
0 ,43650 ,43650 ,201729 ,201729 ,224036 ,224036 ,384077 ,384077 ,224036 ,224036 ,270004 ,270004 ,283673 ,283673 ,270004 ,270004 ,439535 ,439535 ,500030 ,500030 ,515797 ,515797 ,586852 ,586852 ,602312 ,602312 ,696551 ,696551 ,706660 ,706660 ,696551 ,696551 ,725490 ,725490 ,845374 ,845374 ,1000000 ,1000000 ,1004425 ,1004425 ,1012204 ,1012204 ,978687 ,978687 ,1012204 ,1012204 ,1212632 ,1212632 ,1460106 ,1460106 ,1579790 ,1579790 ,1501136 ,1501136 ,1579790 ,1579790 ,1566158 ,1566158 ,1466142 ,1466142 ,1566158 ,1566158 ,1464438 ,1464438 ,1428913 ,1428913 ,1464438 ,1464438 ,1475437 ,1475437 ,1464438 ,1464438 ,1362495 ,1362495 ,1355189 ,1355189 ,1334339 ,1334339 ,1256640 ,1256640 ,1168458 ,1168458 ,934570 ,934570 ,934570 ,1168458 ,1168458 ,1255597 ,1255597 ,1284752 ,1284752 ,1305764 ,1305764 ,1317845 ,1317845 ,1459550 ,1459550 ,1317845 ,1317845 ,1338927 ,1338927 ,1207003 ,1207003 ,1222847 ,1222847 ,1207003 ,1207003 ,1338927 ,1338927 ,1369187 ,1369187 ,1264049 ,1264049 ,1369187 ,1369187 ,1579790 ,1579790 ,1610790 ,1610790 ,1579790 ,1579790 ,1579633 ,1579633 ,1562842 ,1562842 ,1528082 ,1528082 ,1953887 ,1953887 ,1780825 ,1780825 ,1740850 ,1740850 ,1780825 ,1780825 ,1953887 ,1953887 ,1870200 ,1870200 ,1801131 ,1801131 ,1741472 ,1741472 ,1741058 ,1741058 ,1528082 ,1528082 ,1392987 ,1392987 ,1118448 ,1118448 ,1082465 ,1082465 ,920247 ,920247 ,1013380 ,1013380 ,1000245 ,1000245 ,937896 ,937896 ,920247 ,920247 ,1082465 ,1082465 ,1319586 ,1319586 ,1082465 ,1082465 ,1070656 ,1070656 ,1066309 ,1066309 ,1054724 ,1054724 ,1035654 ,1035654 ,1000000 ,1000000 ,981439 ,981439 ,895961 ,895961 ,432039 ,432039 ,340101 ,340101 ,284389 ,284389 ,340101 ,340101 ,432039 ,432039 ,459978 ,459978 ,699853 ,699853 ,841523 ,841523 ,432039 ,432039 ,218925 ,218925 ,380154 ,380154 ,218925 ,218925 ,0 ,0 ,76684 ,76684 ,71774 ,71774 ,14883 ,14883 ,0 ,0 ,62764 ,62764 ,93651 ,93651 ,211238 ,211238 ,283721 ,283721 ,376378 ,376378 ,487194 ,487194 ,577948 ,577948 ,568437 ,568437 ,514706 ,514706 ,487194 ,487194 ,476433 ,476433 ,487194 ,487194 ,211238 ,211238 ,225625 ,281381 ,281381 ,211238 ,211238 ,0 ,
POINTS_Y
0 ,0 ,-37850 ,-37850 ,0 ,0 ,-47464 ,-47464 ,-176321 ,-176321 ,-309391 ,-309391 ,-277452 ,-277452 ,-239947 ,-239947 ,-203918 ,-203918 ,-350322 ,-350322 ,-203918 ,-203918 ,-309391 ,-309391 ,0 ,0 ,-35257 ,-35257 ,-12100 ,-12100 ,-2053 ,-2053 ,0 ,0 ,509838 ,509838 ,0 ,0 ,65910 ,65910 ,-1355 ,-1355 ,-44556 ,-44556 ,-104000 ,-104000 ,-178576 ,-178576 ,-1355 ,-1355 ,65910 ,65910 ,96921 ,96921 ,219386 ,219386 ,250218 ,250218 ,317704 ,317704 ,335788 ,335788 ,364414 ,364414 ,314067 ,314067 ,208323 ,208323 ,203154 ,203154 ,185474 ,185474 ,184650 ,184650 ,364414 ,364414 ,250218 ,250218 ,128733 ,128733 ,250218 ,250218 ,305340 ,305340 ,512709 ,607082 ,607082 ,635527 ,635527 ,849196 ,849196 ,859884 ,859884 ,849196 ,849196 ,835158 ,835158 ,682544 ,682544 ,635527 ,635527 ,604299 ,604299 ,572831 ,572831 ,553243 ,553243 ,508220 ,508220 ,484122 ,484122 ,542151 ,542151 ,600939 ,600939 ,635527 ,635527 ,645037 ,645037 ,681570 ,681570 ,834929 ,834929 ,810928 ,810928 ,834929 ,834929 ,859335 ,859335 ,980400 ,980400 ,998600 ,998600 ,1060776 ,1060776 ,1073466 ,1073466 ,1137218 ,1137218 ,1405103 ,1405103 ,1384189 ,1384189 ,1405103 ,1405103 ,1137218 ,1137218 ,1231811 ,1231811 ,1319497 ,1319497 ,1231811 ,1231811 ,1189144 ,1189144 ,1159840 ,1159840 ,1099132 ,1099132 ,1117983 ,1117983 ,1099132 ,1099132 ,1056336 ,1056336 ,1020178 ,1020178 ,956489 ,956489 ,834929 ,834929 ,856741 ,856741 ,834929 ,834929 ,772243 ,772243 ,834929 ,834929 ,1000000 ,1000000 ,733990 ,733990 ,1242880 ,1242880 ,1236594 ,1236594 ,1232277 ,1232277 ,1211611 ,1211611 ,1151581 ,1151581 ,1133664 ,1133664 ,1176233 ,1176233 ,1133664 ,1133664 ,748486 ,748486 ,733990 ,733990 ,804943 ,804943 ,831564 ,831564 ,1000000 ,1000000 ,950197 ,950197 ,875370 ,875370 ,899470 ,899470 ,875370 ,875370 ,576261 ,576261 ,478010 ,478010 ,576261 ,576261 ,572978 ,572978 ,658985 ,658985 ,572978 ,572978 ,557722 ,557722 ,476968 ,476968 ,546860 ,546860 ,476968 ,476968 ,450374 ,450374 ,409582 ,409582 ,396509 ,396509 ,339276 ,339276 ,339276 ,299087 ,299087 ,126620 ,126620 ,
REGION_BOUND
0 ,1 ,2 ,3 ,4 ,5 ,6 ,7 ,8 ,9 ,10 ,11 ,12 ,13 ,14 ,15 ,16 ,17 ,18 ,19 ,20 ,21 ,22 ,23 ,24 ,25 ,26 ,27 ,28 ,29 ,30 ,31 ,32 ,33 ,34 ,35 ,36 ,37 ,38 ,39 ,40 ,41 ,42 ,43 ,44 ,45 ,46 ,47 ,48 ,49 ,50 ,51 ,52 ,53 ,54 ,55 ,56 ,57 ,58 ,59 ,60 ,61 ,62 ,63 ,64 ,65 ,66 ,67 ,68 ,69 ,70 ,71 ,72 ,73 ,74 ,75 ,76 ,77 ,78 ,79 ,80 ,81 ,82 ,83 ,84 ,85 ,86 ,87 ,88 ,89 ,90 ,91 ,92 ,93 ,94 ,95 ,96 ,97 ,98 ,99 ,100 ,101 ,102 ,103 ,104 ,105 ,106 ,107 ,108 ,109 ,110 ,111 ,112 ,113 ,114 ,115 ,116 ,117 ,118 ,119 ,120 ,121 ,122 ,123 ,124 ,125 ,126 ,127 ,128 ,129 ,130 ,131 ,132 ,133 ,134 ,135 ,136 ,137 ,138 ,139 ,140 ,141 ,142 ,143 ,144 ,145 ,146 ,147 ,148 ,149 ,150 ,151 ,152 ,153 ,154 ,155 ,156 ,157 ,158 ,159 ,160 ,161 ,162 ,163 ,164 ,165 ,166 ,167 ,168 ,169 ,170 ,171 ,172 ,173 ,174 ,175 ,176 ,177 ,178 ,179 ,180 ,181 ,182 ,183 ,184 ,185 ,186 ,187 ,188 ,189 ,190 ,191 ,192 ,193 ,194 ,195 ,196 ,197 ,198 ,199 ,200 ,201 ,202 ,203 ,204 ,205 ,206 ,207 ,208 ,209 ,210 ,211 ,212 ,213 ,214 ,215 ,216 ,217 ,218 ,219 ,220 ,221 ,222 ,223 ,224 ,225 ,226 ,227 ,228 ,229 ,230 ,231 ,232 ,233 ,234 ,235 ,236 ,237 ,238 ,239 ,240 ,241 ,242 ,243 ,244 ,245 ,246 ,247 ,248 ,249 ,
NUM CONSTRAINTS
0

ADDITIONAL CONSTRAINTS

METHOD: ant

PARAMETERS:
L: 200, alpha: 3, beta: 0.8, kappa: 8, lambda: 0.5, psi: 3, xi: 1, 
DELAUNAY: true
Δ. Μη κυρτό boundary με ευθύγραμμα τμήματα παράλληλα στους άξονες χωρίςm περιορισμούς.
pn:0 obtuses:218 steiners:3
pn:-0.0159819 obtuses:217 steiners:4
pn:0 obtuses:217 steiners:5
pn:0 obtuses:217 steiners:6
pn:-0.0299638 obtuses:216 steiners:7
pn:0 obtuses:216 steiners:8
pn:0 obtuses:216 steiners:9
pn:-0.0440429 obtuses:215 steiners:10
pn:0 obtuses:215 steiners:11
pn:0 obtuses:215 steiners:12
pn:0 obtuses:215 steiners:13
pn:0 obtuses:215 steiners:14
pn:0 obtuses:215 steiners:15
pn:0 obtuses:215 steiners:16
pn:0 obtuses:215 steiners:17
pn:0 obtuses:215 steiners:18
pn:0 obtuses:215 steiners:19
pn:0 obtuses:215 steiners:20
pn:0 obtuses:215 steiners:21
pn:0 obtuses:215 steiners:22
pn:0 obtuses:215 steiners:23
pn:0 obtuses:215 steiners:24
pn:0 obtuses:215 steiners:25
pn:0 obtuses:215 steiners:26
pn:0 obtuses:215 steiners:27
pn:0 obtuses:215 steiners:28
pn:0 obtuses:215 steiners:29
pn:0 obtuses:215 steiners:30
pn:0 obtuses:215 steiners:31
pn:0 obtuses:215 steiners:32
pn:0 obtuses:215 steiners:33
pn:-0.156166 obtuses:214 steiners:34
pn:-0.161581 obtuses:213 steiners:35
pn:0 obtuses:213 steiners:36
pn:0 obtuses:213 steiners:37
pn:0 obtuses:213 steiners:38
pn:0 obtuses:213 steiners:39
pn:0 obtuses:213 steiners:40
pn:0 obtuses:213 steiners:41
pn:0 obtuses:213 steiners:42
pn:0 obtuses:213 steiners:43
pn:0 obtuses:213 steiners:44
pn:0 obtuses:213 steiners:45
pn:0 obtuses:213 steiners:46
pn:0 obtuses:213 steiners:47
pn:0 obtuses:213 steiners:48
pn:0 obtuses:213 steiners:49
pn:0 obtuses:213 steiners:50
pn:0 obtuses:213 steiners:51
pn:0 obtuses:213 steiners:52
pn:0 obtuses:213 steiners:53
pn:0 obtuses:213 steiners:54
pn:0 obtuses:213 steiners:55
pn:0 obtuses:213 steiners:56
pn:0 obtuses:213 steiners:57
pn:-0.270582 obtuses:212 steiners:58
pn:0 obtuses:212 steiners:59
pn:0 obtuses:212 steiners:60
pn:0 obtuses:212 steiners:61
pn:0 obtuses:212 steiners:62
pn:0 obtuses:212 steiners:63
pn:0 obtuses:212 steiners:64
pn:0 obtuses:212 steiners:65
pn:0 obtuses:212 steiners:66
pn:0 obtuses:212 steiners:67
pn:0 obtuses:212 steiners:68
pn:0 obtuses:212 steiners:69
pn:0 obtuses:212 steiners:70
pn:0 obtuses:212 steiners:71
pn:0 obtuses:212 steiners:72
pn:0 obtuses:212 steiners:73
pn:0 obtuses:212 steiners:74
pn:0 obtuses:212 steiners:75
pn:0 obtuses:212 steiners:76
pn:0 obtuses:212 steiners:77
pn:0 obtuses:212 steiners:78
pn:0 obtuses:212 steiners:79
pn:0 obtuses:212 steiners:80
pn:0 obtuses:212 steiners:81
pn:0 obtuses:212 steiners:82
pn:0 obtuses:212 steiners:83
pn:0 obtuses:212 steiners:84
pn:0 obtuses:212 steiners:85
pn:0 obtuses:212 steiners:86
pn:0 obtuses:212 steiners:87
pn:0 obtuses:212 steiners:88
pn:0 obtuses:212 steiners:89
pn:-0.423164 obtuses:211 steiners:90
pn:0 obtuses:211 steiners:91
pn:0 obtuses:211 steiners:92
pn:-0.439426 obtuses:210 steiners:93
pn:0 obtuses:210 steiners:94
pn:0 obtuses:210 steiners:95
pn:0 obtuses:210 steiners:96
pn:0 obtuses:210 steiners:97
pn:0 obtuses:210 steiners:98
pn:0 obtuses:210 steiners:99
pn:0 obtuses:210 steiners:100
pn:0 obtuses:210 steiners:101
pn:0 obtuses:210 steiners:102
pn:0 obtuses:210 steiners:103
pn:0 obtuses:210 steiners:104
pn:0 obtuses:210 steiners:105
pn:0 obtuses:210 steiners:106
pn:0 obtuses:210 steiners:107
pn:0 obtuses:210 steiners:108
pn:0 obtuses:210 steiners:109
pn:0 obtuses:210 steiners:110
pn:0 obtuses:210 steiners:111
pn:0 obtuses:210 steiners:112
pn:0 obtuses:210 steiners:113
pn:0 obtuses:210 steiners:114
pn:0 obtuses:210 steiners:115
pn:0 obtuses:210 steiners:116
pn:0 obtuses:210 steiners:117
pn:0 obtuses:210 steiners:118
pn:0 obtuses:210 steiners:119
pn:0 obtuses:210 steiners:120
pn:0 obtuses:210 steiners:121
pn:0 obtuses:210 steiners:122
pn:0 obtuses:210 steiners:123
pn:0 obtuses:210 steiners:124
pn:0 obtuses:210 steiners:125
pn:0 obtuses:210 steiners:126
pn:0 obtuses:210 steiners:127
pn:0 obtuses:210 steiners:128
pn:0 obtuses:210 steiners:129
pn:0 obtuses:210 steiners:130
pn:0 obtuses:210 steiners:131
pn:0 obtuses:210 steiners:132
pn:0 obtuses:210 steiners:133
pn:0 obtuses:210 steiners:134
pn:0 obtuses:210 steiners:135
pn:0 obtuses:210 steiners:136
pn:0 obtuses:210 steiners:137
pn:0 obtuses:210 steiners:138
pn:0 obtuses:210 steiners:139
pn:0 obtuses:210 steiners:140
pn:0 obtuses:210 steiners:141
pn:0 obtuses:210 steiners:142
pn:0 obtuses:210 steiners:143
pn:0 obtuses:210 steiners:144
pn:0 obtuses:210 steiners:145
pn:0 obtuses:210 steiners:146
pn:0 obtuses:210 steiners:147
pn:0 obtuses:210 steiners:148
pn:0 obtuses:210 steiners:149
pn:0 obtuses:210 steiners:150
pn:0 obtuses:210 steiners:151
pn:0 obtuses:210 steiners:152
pn:0 obtuses:210 steiners:153
pn:0 obtuses:210 steiners:154
pn:0 obtuses:210 steiners:155
pn:0 obtuses:210 steiners:156
pn:0 obtuses:210 steiners:157
pn:0 obtuses:210 steiners:158
pn:0 obtuses:210 steiners:159
pn:0 obtuses:210 steiners:160
pn:0 obtuses:210 steiners:161
pn:0 obtuses:210 steiners:162
pn:0 obtuses:210 steiners:163
pn:0 obtuses:210 steiners:164
pn:0 obtuses:210 steiners:165
pn:0 obtuses:210 steiners:166
pn:0 obtuses:210 steiners:167
pn:0 obtuses:210 steiners:168
pn:0 obtuses:210 steiners:169
pn:0 obtuses:210 steiners:170
pn:0 obtuses:210 steiners:171
pn:0 obtuses:210 steiners:172
pn:0 obtuses:210 steiners:173
pn:0 obtuses:210 steiners:174
pn:0 obtuses:210 steiners:175
pn:0 obtuses:210 steiners:176
pn:0 obtuses:210 steiners:177
pn:0 obtuses:210 steiners:178
pn:0 obtuses:210 steiners:179
pn:0 obtuses:210 steiners:180
pn:0 obtuses:210 steiners:181
pn:0 obtuses:210 steiners:182
pn:0 obtuses:210 steiners:183
pn:0 obtuses:210 steiners:184
pn:0 obtuses:210 steiners:185
pn:0 obtuses:210 steiners:186
pn:0 obtuses:210 steiners:187
pn:0 obtuses:210 steiners:188
pn:0 obtuses:210 steiners:189
pn:0 obtuses:210 steiners:190
pn:0 obtuses:210 steiners:191
pn:0 obtuses:210 steiners:192
pn:0 obtuses:210 steiners:193
pn:0 obtuses:210 steiners:194
pn:-0.928401 obtuses:209 steiners:195
pn:0 obtuses:209 steiners:196
pn:0 obtuses:209 steiners:197
pn:0 obtuses:209 steiners:198
pn:0 obtuses:209 steiners:199
Μέσος ρυθμός σύγκλισης: -0.0124086
Method: Ant Colony: 
	Original CDT had: 219/478 obtuse faces
	We inserted 199 steiner points:
		Middle of largest edge: 0
		Circumcenter: 0
		Projection: 199
		Polygon Cnetroid: 0
Final obtuse faces: 209/867
Αρχικές αμβλείες: 219
Τελικές αμβλείες: 209

Αρχικά faces: 478
Τελικές faces: 867

Αρχική ενέργεια: 657
Τελική ενέργεια: 786.2

4.56621% μείωση αμβλείων
