Input file: .vscode/temp_4_ant.json
Output file: .vscode/output_4_ant.json
ortho_100_bd1e4a14
100

POINTS_X
0 ,28935 ,28935 ,95517 ,95517 ,243221 ,243221 ,245208 ,245208 ,253870 ,253870 ,262782 ,262782 ,366050 ,366050 ,262782 ,262782 ,278171 ,278171 ,316492 ,316492 ,409622 ,409622 ,496781 ,496781 ,719804 ,719804 ,931960 ,931960 ,1000000 ,1000000 ,978299 ,978299 ,1000000 ,1000000 ,1116972 ,1116972 ,1543556 ,1543556 ,1871487 ,1871487 ,1606957 ,1606957 ,1528199 ,1528199 ,1543160 ,1543160 ,1528199 ,1528199 ,1606957 ,1606957 ,1295544 ,1295544 ,1325228 ,1325228 ,1295544 ,1295544 ,1000000 ,1000000 ,1109140 ,1109140 ,1135027 ,1135027 ,1162925 ,1162925 ,1000000 ,1000000 ,1320409 ,1320409 ,1000000 ,1000000 ,853065 ,853065 ,752275 ,752275 ,530223 ,530223 ,752275 ,752275 ,0 ,0 ,160957 ,160957 ,0 ,0 ,-69674 ,-69674 ,-159636 ,-159636 ,-166572 ,-166572 ,-349481 ,-349481 ,-166572 ,-166572 ,0 ,0 ,-248761 ,-248761 ,0 ,
POINTS_Y
0 ,0 ,656474 ,656474 ,475488 ,475488 ,656474 ,656474 ,667816 ,667816 ,656474 ,656474 ,465587 ,465587 ,186254 ,186254 ,0 ,0 ,-220049 ,-220049 ,0 ,0 ,-461466 ,-461466 ,-55981 ,-55981 ,-461466 ,-461466 ,0 ,0 ,24286 ,24286 ,105301 ,105301 ,128731 ,128731 ,21099 ,21099 ,128731 ,128731 ,499001 ,499001 ,514404 ,514404 ,522181 ,522181 ,530648 ,530648 ,539466 ,539466 ,621700 ,621700 ,603157 ,603157 ,513175 ,513175 ,499001 ,499001 ,509537 ,509537 ,636045 ,636045 ,509537 ,509537 ,655052 ,655052 ,714611 ,714611 ,779276 ,779276 ,1000000 ,1000000 ,261205 ,261205 ,434765 ,434765 ,839051 ,839051 ,1000000 ,1000000 ,947019 ,947019 ,766750 ,766750 ,625265 ,625265 ,571811 ,571811 ,625265 ,625265 ,624153 ,624153 ,419845 ,419845 ,346519 ,346519 ,334809 ,334809 ,37329 ,37329 ,
REGION_BOUND
0 ,1 ,2 ,3 ,4 ,5 ,6 ,7 ,8 ,9 ,10 ,11 ,12 ,13 ,14 ,15 ,16 ,17 ,18 ,19 ,20 ,21 ,22 ,23 ,24 ,25 ,26 ,27 ,28 ,29 ,30 ,31 ,32 ,33 ,34 ,35 ,36 ,37 ,38 ,39 ,40 ,41 ,42 ,43 ,44 ,45 ,46 ,47 ,48 ,49 ,50 ,51 ,52 ,53 ,54 ,55 ,56 ,57 ,58 ,59 ,60 ,61 ,62 ,63 ,64 ,65 ,66 ,67 ,68 ,69 ,70 ,71 ,72 ,73 ,74 ,75 ,76 ,77 ,78 ,79 ,80 ,81 ,82 ,83 ,84 ,85 ,86 ,87 ,88 ,89 ,90 ,91 ,92 ,93 ,94 ,95 ,96 ,97 ,98 ,99 ,
NUM CONSTRAINTS
0

ADDITIONAL CONSTRAINTS

METHOD: ant

PARAMETERS:
L: 200, alpha: 3, beta: 0.8, kappa: 8, lambda: 0.5, psi: 3, xi: 1, 
DELAUNAY: true
Δ. Μη κυρτό boundary με ευθύγραμμα τμήματα παράλληλα στους άξονες χωρίςm περιορισμούς.
pn:0 obtuses:85 steiners:3
pn:0 obtuses:85 steiners:4
pn:-0.0530352 obtuses:84 steiners:5
pn:0 obtuses:84 steiners:6
pn:0 obtuses:84 steiners:7
pn:0 obtuses:84 steiners:8
pn:0 obtuses:84 steiners:9
pn:0 obtuses:84 steiners:10
pn:0 obtuses:84 steiners:11
pn:0 obtuses:84 steiners:12
pn:-0.149623 obtuses:83 steiners:13
pn:0 obtuses:83 steiners:14
pn:0 obtuses:83 steiners:15
pn:0 obtuses:83 steiners:16
pn:0 obtuses:83 steiners:17
pn:0 obtuses:83 steiners:18
pn:0 obtuses:83 steiners:19
pn:-0.236315 obtuses:82 steiners:20
pn:0 obtuses:82 steiners:21
pn:-0.263759 obtuses:81 steiners:22
pn:0 obtuses:81 steiners:23
pn:0 obtuses:81 steiners:24
pn:0 obtuses:81 steiners:25
pn:0 obtuses:81 steiners:26
pn:0 obtuses:81 steiners:27
pn:0 obtuses:81 steiners:28
pn:0 obtuses:81 steiners:29
pn:0 obtuses:81 steiners:30
pn:0 obtuses:81 steiners:31
pn:0 obtuses:81 steiners:32
pn:0 obtuses:81 steiners:33
pn:0 obtuses:81 steiners:34
pn:0 obtuses:81 steiners:35
pn:0 obtuses:81 steiners:36
pn:0 obtuses:81 steiners:37
pn:0 obtuses:81 steiners:38
pn:0 obtuses:81 steiners:39
pn:-0.490663 obtuses:80 steiners:40
pn:0 obtuses:80 steiners:41
pn:0 obtuses:80 steiners:42
pn:-0.534574 obtuses:79 steiners:43
pn:0 obtuses:79 steiners:44
pn:0 obtuses:79 steiners:45
pn:0 obtuses:79 steiners:46
pn:-0.592342 obtuses:78 steiners:47
pn:0 obtuses:78 steiners:48
pn:-0.625793 obtuses:77 steiners:49
pn:0 obtuses:77 steiners:50
pn:0 obtuses:77 steiners:51
pn:0 obtuses:77 steiners:52
pn:0 obtuses:77 steiners:53
pn:0 obtuses:77 steiners:54
pn:0 obtuses:77 steiners:55
pn:0 obtuses:77 steiners:56
pn:0 obtuses:77 steiners:57
pn:0 obtuses:77 steiners:58
pn:0 obtuses:77 steiners:59
pn:0 obtuses:77 steiners:60
pn:0 obtuses:77 steiners:61
pn:0 obtuses:77 steiners:62
pn:0 obtuses:77 steiners:63
pn:0 obtuses:77 steiners:64
pn:0 obtuses:77 steiners:65
pn:0 obtuses:77 steiners:66
pn:0 obtuses:77 steiners:67
pn:0 obtuses:77 steiners:68
pn:0 obtuses:77 steiners:69
pn:0 obtuses:77 steiners:70
pn:0 obtuses:77 steiners:71
pn:0 obtuses:77 steiners:72
pn:0 obtuses:77 steiners:73
pn:0 obtuses:77 steiners:74
pn:0 obtuses:77 steiners:75
pn:0 obtuses:77 steiners:76
pn:0 obtuses:77 steiners:77
pn:0 obtuses:77 steiners:78
pn:0 obtuses:77 steiners:79
pn:0 obtuses:77 steiners:80
pn:0 obtuses:77 steiners:81
pn:0 obtuses:77 steiners:82
pn:0 obtuses:77 steiners:83
pn:0 obtuses:77 steiners:84
pn:0 obtuses:77 steiners:85
pn:0 obtuses:77 steiners:86
pn:0 obtuses:77 steiners:87
pn:0 obtuses:77 steiners:88
pn:0 obtuses:77 steiners:89
pn:0 obtuses:77 steiners:90
pn:0 obtuses:77 steiners:91
pn:-1.19608 obtuses:76 steiners:92
pn:0 obtuses:76 steiners:93
pn:0 obtuses:76 steiners:94
pn:-1.25166 obtuses:75 steiners:95
pn:0 obtuses:75 steiners:96
pn:0 obtuses:75 steiners:97
pn:0 obtuses:75 steiners:98
pn:0 obtuses:75 steiners:99
pn:0 obtuses:75 steiners:100
pn:0 obtuses:75 steiners:101
pn:0 obtuses:75 steiners:102
pn:0 obtuses:75 steiners:103
pn:0 obtuses:75 steiners:104
pn:0 obtuses:75 steiners:105
pn:0 obtuses:75 steiners:106
pn:0 obtuses:75 steiners:107
pn:0 obtuses:75 steiners:108
pn:0 obtuses:75 steiners:109
pn:0 obtuses:75 steiners:110
pn:0 obtuses:75 steiners:111
pn:0 obtuses:75 steiners:112
pn:0 obtuses:75 steiners:113
pn:0 obtuses:75 steiners:114
pn:0 obtuses:75 steiners:115
pn:-1.55035 obtuses:74 steiners:116
pn:0 obtuses:74 steiners:117
pn:-1.59865 obtuses:73 steiners:118
pn:0 obtuses:73 steiners:119
pn:-1.64829 obtuses:72 steiners:120
pn:0 obtuses:72 steiners:121
pn:0 obtuses:72 steiners:122
pn:0 obtuses:72 steiners:123
pn:0 obtuses:72 steiners:124
pn:0 obtuses:72 steiners:125
pn:0 obtuses:72 steiners:126
pn:0 obtuses:72 steiners:127
pn:0 obtuses:72 steiners:128
pn:0 obtuses:72 steiners:129
pn:0 obtuses:72 steiners:130
pn:0 obtuses:72 steiners:131
pn:0 obtuses:72 steiners:132
pn:0 obtuses:72 steiners:133
pn:0 obtuses:72 steiners:134
pn:0 obtuses:72 steiners:135
pn:0 obtuses:72 steiners:136
pn:0 obtuses:72 steiners:137
pn:0 obtuses:72 steiners:138
pn:0 obtuses:72 steiners:139
pn:0 obtuses:72 steiners:140
pn:0 obtuses:72 steiners:141
pn:0 obtuses:72 steiners:142
pn:0 obtuses:72 steiners:143
pn:0 obtuses:72 steiners:144
pn:0 obtuses:72 steiners:145
pn:0 obtuses:72 steiners:146
pn:0 obtuses:72 steiners:147
pn:0 obtuses:72 steiners:148
pn:0 obtuses:72 steiners:149
pn:0 obtuses:72 steiners:150
pn:0 obtuses:72 steiners:151
pn:0 obtuses:72 steiners:152
pn:0 obtuses:72 steiners:153
pn:0 obtuses:72 steiners:154
pn:0 obtuses:72 steiners:155
pn:0 obtuses:72 steiners:156
pn:0 obtuses:72 steiners:157
pn:0 obtuses:72 steiners:158
pn:0 obtuses:72 steiners:159
pn:0 obtuses:72 steiners:160
pn:0 obtuses:72 steiners:161
pn:0 obtuses:72 steiners:162
pn:0 obtuses:72 steiners:163
pn:0 obtuses:72 steiners:164
pn:0 obtuses:72 steiners:165
pn:0 obtuses:72 steiners:166
pn:0 obtuses:72 steiners:167
pn:0 obtuses:72 steiners:168
pn:0 obtuses:72 steiners:169
pn:0 obtuses:72 steiners:170
pn:0 obtuses:72 steiners:171
pn:0 obtuses:72 steiners:172
pn:0 obtuses:72 steiners:173
pn:0 obtuses:72 steiners:174
pn:0 obtuses:72 steiners:175
pn:0 obtuses:72 steiners:176
pn:0 obtuses:72 steiners:177
pn:0 obtuses:72 steiners:178
pn:0 obtuses:72 steiners:179
pn:0 obtuses:72 steiners:180
pn:0 obtuses:72 steiners:181
pn:0 obtuses:72 steiners:182
pn:0 obtuses:72 steiners:183
pn:0 obtuses:72 steiners:184
pn:0 obtuses:72 steiners:185
pn:0 obtuses:72 steiners:186
pn:0 obtuses:72 steiners:187
pn:0 obtuses:72 steiners:188
pn:0 obtuses:72 steiners:189
pn:0 obtuses:72 steiners:190
pn:0 obtuses:72 steiners:191
pn:0 obtuses:72 steiners:192
pn:0 obtuses:72 steiners:193
pn:0 obtuses:72 steiners:194
pn:0 obtuses:72 steiners:195
pn:0 obtuses:72 steiners:196
pn:5.38389 obtuses:74 steiners:197
pn:0 obtuses:74 steiners:198
pn:0 obtuses:74 steiners:199
Μέσος ρυθμός σύγκλισης: -0.0241571
Method: Ant Colony: 
	Original CDT had: 86/185 obtuse faces
	We inserted 199 steiner points:
		Middle of largest edge: 0
		Circumcenter: 0
		Projection: 199
		Polygon Cnetroid: 0
Final obtuse faces: 74/572
Αρχικές αμβλείες: 86
Τελικές αμβλείες: 74

Αρχικά faces: 185
Τελικές faces: 572

Αρχική ενέργεια: 258
Τελική ενέργεια: 381.2

13.9535% μείωση αμβλείων
