Input file: .vscode/temp_2_ant.json
Output file: .vscode/output_2_ant.json
point-set_20_0c4009d9
20

POINTS_X
3925 ,9825 ,10375 ,9975 ,9875 ,3525 ,3625 ,4025 ,4025 ,10175 ,3625 ,3725 ,3725 ,9875 ,9675 ,3675 ,4225 ,10275 ,10175 ,9975 ,
POINTS_Y
5350 ,8050 ,5650 ,5150 ,5850 ,8300 ,3650 ,5850 ,3850 ,3350 ,4850 ,4350 ,5650 ,4850 ,4850 ,8050 ,5650 ,3850 ,8300 ,6150 ,
REGION_BOUND
5 ,6 ,9 ,17 ,2 ,18 ,
NUM CONSTRAINTS
0

ADDITIONAL CONSTRAINTS

METHOD: ant

PARAMETERS:
L: 200, alpha: 3, beta: 0.8, kappa: 8, lambda: 0.5, psi: 3, xi: 1, 
DELAUNAY: true
Α. ΚΥΡΤΟ ΠΕΡΙΒΛΗΜΑ ΧΩΡΙΣ ΠΕΡΙΟΡΙΣΜΟΥΣ
pn:0 obtuses:24 steiners:3
pn:0 obtuses:24 steiners:4
pn:-0.190728 obtuses:23 steiners:5
pn:0 obtuses:23 steiners:6
pn:0 obtuses:23 steiners:7
pn:0 obtuses:23 steiners:8
pn:0 obtuses:23 steiners:9
pn:0 obtuses:23 steiners:10
pn:0 obtuses:23 steiners:11
pn:-0.510873 obtuses:22 steiners:12
pn:0 obtuses:22 steiners:13
pn:0 obtuses:22 steiners:14
pn:0 obtuses:22 steiners:15
pn:0 obtuses:22 steiners:16
pn:0 obtuses:22 steiners:17
pn:0 obtuses:22 steiners:18
pn:0 obtuses:22 steiners:19
pn:-0.906941 obtuses:21 steiners:20
pn:0 obtuses:21 steiners:21
pn:0 obtuses:21 steiners:22
pn:0 obtuses:21 steiners:23
pn:0 obtuses:21 steiners:24
pn:0 obtuses:21 steiners:25
pn:0 obtuses:21 steiners:26
pn:0 obtuses:21 steiners:27
pn:0 obtuses:21 steiners:28
pn:0 obtuses:21 steiners:29
pn:0 obtuses:21 steiners:30
pn:0 obtuses:21 steiners:31
pn:0 obtuses:21 steiners:32
pn:0 obtuses:21 steiners:33
pn:0 obtuses:21 steiners:34
pn:0 obtuses:21 steiners:35
pn:0 obtuses:21 steiners:36
pn:-1.78073 obtuses:20 steiners:37
pn:0 obtuses:20 steiners:38
pn:-1.97468 obtuses:19 steiners:39
pn:0 obtuses:19 steiners:40
pn:0 obtuses:19 steiners:41
pn:0 obtuses:19 steiners:42
pn:0 obtuses:19 steiners:43
pn:0 obtuses:19 steiners:44
pn:0 obtuses:19 steiners:45
pn:0 obtuses:19 steiners:46
pn:0 obtuses:19 steiners:47
pn:0 obtuses:19 steiners:48
pn:0 obtuses:19 steiners:49
pn:0 obtuses:19 steiners:50
pn:0 obtuses:19 steiners:51
pn:0 obtuses:19 steiners:52
pn:0 obtuses:19 steiners:53
pn:0 obtuses:19 steiners:54
pn:0 obtuses:19 steiners:55
pn:0 obtuses:19 steiners:56
pn:0 obtuses:19 steiners:57
pn:0 obtuses:19 steiners:58
pn:0 obtuses:19 steiners:59
pn:0 obtuses:19 steiners:60
pn:0 obtuses:19 steiners:61
pn:0 obtuses:19 steiners:62
pn:0 obtuses:19 steiners:63
pn:0 obtuses:19 steiners:64
pn:0 obtuses:19 steiners:65
pn:0 obtuses:19 steiners:66
pn:0 obtuses:19 steiners:67
pn:0 obtuses:19 steiners:68
pn:0 obtuses:19 steiners:69
pn:0 obtuses:19 steiners:70
pn:0 obtuses:19 steiners:71
pn:0 obtuses:19 steiners:72
pn:0 obtuses:19 steiners:73
pn:0 obtuses:19 steiners:74
pn:0 obtuses:19 steiners:75
pn:0 obtuses:19 steiners:76
pn:0 obtuses:19 steiners:77
pn:0 obtuses:19 steiners:78
pn:0 obtuses:19 steiners:79
pn:0 obtuses:19 steiners:80
pn:0 obtuses:19 steiners:81
pn:0 obtuses:19 steiners:82
pn:0 obtuses:19 steiners:83
pn:0 obtuses:19 steiners:84
pn:0 obtuses:19 steiners:85
pn:0 obtuses:19 steiners:86
pn:0 obtuses:19 steiners:87
pn:0 obtuses:19 steiners:88
pn:0 obtuses:19 steiners:89
pn:0 obtuses:19 steiners:90
pn:0 obtuses:19 steiners:91
pn:0 obtuses:19 steiners:92
pn:-5.00117 obtuses:18 steiners:93
pn:0 obtuses:18 steiners:94
pn:0 obtuses:18 steiners:95
pn:0 obtuses:18 steiners:96
pn:0 obtuses:18 steiners:97
pn:0 obtuses:18 steiners:98
pn:0 obtuses:18 steiners:99
pn:0 obtuses:18 steiners:100
pn:0 obtuses:18 steiners:101
pn:0 obtuses:18 steiners:102
pn:0 obtuses:18 steiners:103
pn:0 obtuses:18 steiners:104
pn:0 obtuses:18 steiners:105
pn:-6.03017 obtuses:17 steiners:106
pn:0 obtuses:17 steiners:107
pn:0 obtuses:17 steiners:108
pn:0 obtuses:17 steiners:109
pn:0 obtuses:17 steiners:110
pn:0 obtuses:17 steiners:111
pn:0 obtuses:17 steiners:112
pn:0 obtuses:17 steiners:113
pn:0 obtuses:17 steiners:114
pn:0 obtuses:17 steiners:115
pn:0 obtuses:17 steiners:116
pn:0 obtuses:17 steiners:117
pn:0 obtuses:17 steiners:118
pn:0 obtuses:17 steiners:119
pn:0 obtuses:17 steiners:120
pn:0 obtuses:17 steiners:121
pn:0 obtuses:17 steiners:122
pn:0 obtuses:17 steiners:123
pn:0 obtuses:17 steiners:124
pn:0 obtuses:17 steiners:125
pn:0 obtuses:17 steiners:126
pn:0 obtuses:17 steiners:127
pn:0 obtuses:17 steiners:128
pn:0 obtuses:17 steiners:129
pn:0 obtuses:17 steiners:130
pn:0 obtuses:17 steiners:131
pn:-7.9721 obtuses:16 steiners:132
pn:0 obtuses:16 steiners:133
pn:-8.61585 obtuses:15 steiners:134
pn:-9.2795 obtuses:14 steiners:135
pn:0 obtuses:14 steiners:136
pn:0 obtuses:14 steiners:137
pn:0 obtuses:14 steiners:138
pn:0 obtuses:14 steiners:139
pn:0 obtuses:14 steiners:140
pn:0 obtuses:14 steiners:141
pn:0 obtuses:14 steiners:142
pn:0 obtuses:14 steiners:143
pn:0 obtuses:14 steiners:144
pn:0 obtuses:14 steiners:145
pn:0 obtuses:14 steiners:146
pn:0 obtuses:14 steiners:147
pn:0 obtuses:14 steiners:148
pn:0 obtuses:14 steiners:149
pn:0 obtuses:14 steiners:150
pn:0 obtuses:14 steiners:151
pn:0 obtuses:14 steiners:152
pn:0 obtuses:14 steiners:153
pn:0 obtuses:14 steiners:154
pn:0 obtuses:14 steiners:155
pn:0 obtuses:14 steiners:156
pn:-11.5979 obtuses:13 steiners:157
pn:0 obtuses:13 steiners:158
pn:0 obtuses:13 steiners:159
pn:0 obtuses:13 steiners:160
pn:0 obtuses:13 steiners:161
pn:0 obtuses:13 steiners:162
pn:0 obtuses:13 steiners:163
pn:0 obtuses:13 steiners:164
pn:0 obtuses:13 steiners:165
pn:0 obtuses:13 steiners:166
pn:0 obtuses:13 steiners:167
pn:0 obtuses:13 steiners:168
pn:0 obtuses:13 steiners:169
pn:0 obtuses:13 steiners:170
pn:0 obtuses:13 steiners:171
pn:0 obtuses:13 steiners:172
pn:0 obtuses:13 steiners:173
pn:0 obtuses:13 steiners:174
pn:0 obtuses:13 steiners:175
pn:0 obtuses:13 steiners:176
pn:0 obtuses:13 steiners:177
pn:0 obtuses:13 steiners:178
pn:0 obtuses:13 steiners:179
pn:0 obtuses:13 steiners:180
pn:0 obtuses:13 steiners:181
pn:0 obtuses:13 steiners:182
pn:0 obtuses:13 steiners:183
pn:0 obtuses:13 steiners:184
pn:0 obtuses:13 steiners:185
pn:0 obtuses:13 steiners:186
pn:0 obtuses:13 steiners:187
pn:0 obtuses:13 steiners:188
pn:0 obtuses:13 steiners:189
pn:0 obtuses:13 steiners:190
pn:0 obtuses:13 steiners:191
pn:0 obtuses:13 steiners:192
pn:0 obtuses:13 steiners:193
pn:0 obtuses:13 steiners:194
pn:0 obtuses:13 steiners:195
pn:0 obtuses:13 steiners:196
pn:0 obtuses:13 steiners:197
pn:0 obtuses:13 steiners:198
pn:0 obtuses:13 steiners:199
Μέσος ρυθμός σύγκλισης: -0.270656
Method: Ant Colony: 
	Original CDT had: 26/32 obtuse faces
	We inserted 199 steiner points:
		Middle of largest edge: 0
		Circumcenter: 0
		Projection: 199
		Polygon Cnetroid: 0
Final obtuse faces: 13/417
Αρχικές αμβλείες: 26
Τελικές αμβλείες: 13

Αρχικά faces: 32
Τελικές faces: 417

Αρχική ενέργεια: 78
Τελική ενέργεια: 198.2

50% μείωση αμβλείων
